@<TRIPOS>MOLECULE
23_Das_8.pdb
1196 1292 37 0 0
NUCLEIC_ACID
AMBER ff14SB


@<TRIPOS>ATOM
      1 C5'       -16.7030  -11.7270  -35.6720 C.3       1   G1        0.0558
      2 O5'       -15.4410  -11.9200  -36.2940 O.3       1   G1       -0.6223
      3 C4'       -17.7600  -12.6180  -36.2780 C.3       1   G1        0.1065
      4 O4'       -17.9390  -12.2860  -37.6780 O.3       1   G1       -0.3548
      5 C3'       -17.4530  -14.1080  -36.2850 C.3       1   G1        0.2022
      6 O3'       -17.7310  -14.7380  -35.0460 O.3       1   G1       -0.5246
      7 C2'       -18.3090  -14.6170  -37.4360 C.3       1   G1        0.0670
      8 O2'       -19.6650  -14.7710  -37.0400 O.3       1   G1       -0.6139
      9 C1'       -18.2110  -13.4570  -38.4270 C.3       1   G1        0.0191
     10 N1        -16.5810  -16.0640  -42.4850 N.am      1   G1       -0.4787
     11 C2        -17.7590  -16.1760  -41.7890 C.2       1   G1        0.7657
     12 N2        -18.6250  -17.1040  -42.2270 N.pl3     1   G1       -0.9672
     13 N3        -18.0730  -15.4330  -40.7400 N.2       1   G1       -0.6323
     14 C4        -17.0960  -14.5530  -40.4340 C.ar      1   G1        0.1222
     15 C5        -15.8820  -14.3620  -41.0610 C.ar      1   G1        0.1744
     16 C6        -15.5610  -15.1660  -42.1860 C.2       1   G1        0.4770
     17 O6        -14.5340  -15.1480  -42.8780 O.2       1   G1       -0.5597
     18 N7        -15.1590  -13.3570  -40.4370 N.ar      1   G1       -0.5709
     19 C8        -15.9300  -12.9630  -39.4590 C.ar      1   G1        0.1374
     20 N9        -17.1190  -13.6470  -39.3990 N.ar      1   G1        0.0492
     21 H5'       -17.0034  -10.6865  -35.7958 H         1   G1        0.0679
     22 H5''      -16.6150  -11.9494  -34.6086 H         1   G1        0.0679
     23 H4'       -18.7016  -12.4546  -35.7538 H         1   G1        0.1174
     24 H3'       -16.4013  -14.2541  -36.5312 H         1   G1        0.0615
     25 H2'       -17.9073  -15.5387  -37.8570 H         1   G1        0.0972
     26 H1'       -19.1577  -13.3438  -38.9552 H         1   G1        0.2006
     27 H1        -16.4444  -16.6800  -43.2737 H         1   G1        0.3424
     28 H8        -15.6596  -12.1786  -38.7676 H         1   G1        0.1640
     29 H21       -19.5091  -17.2321  -41.7558 H         1   G1        0.4364
     30 H22       -18.3923  -17.6739  -43.0277 H         1   G1        0.4364
     31 HO2'      -19.7363  -15.4979  -36.4170 H         1   G1        0.4186
     32 HO5'      -14.7069  -11.3287  -36.1121 H         1   G1        0.4295
     33 P         -16.6850  -15.7870  -34.4220 P.3       2   U2        1.1662
     34 C5'       -18.2570  -17.8030  -35.0000 C.3       2   U2        0.0558
     35 O5'       -17.0090  -17.1510  -35.1760 O.3       2   U2       -0.4989
     36 C4'       -18.4860  -18.8610  -36.0490 C.3       2   U2        0.1065
     37 O4'       -18.5070  -18.2560  -37.3680 O.3       2   U2       -0.3548
     38 C3'       -17.4200  -19.9410  -36.1560 C.3       2   U2        0.2022
     39 O3'       -17.5710  -20.9680  -35.1890 O.3       2   U2       -0.5246
     40 C2'       -17.5800  -20.4280  -37.5900 C.3       2   U2        0.0670
     41 O2'       -18.6850  -21.3110  -37.7160 O.3       2   U2       -0.6139
     42 C1'       -17.9030  -19.1210  -38.3190 C.3       2   U2        0.0674
     43 N1        -16.6880  -18.4570  -38.8510 N.am      2   U2        0.0418
     44 C2        -16.2410  -18.8630  -40.0950 C.2       2   U2        0.4687
     45 O2        -16.7970  -19.7230  -40.7550 O.2       2   U2       -0.5477
     46 N3        -15.1140  -18.2210  -40.5460 N.am      2   U2       -0.3549
     47 C4        -14.4000  -17.2370  -39.8950 C.2       2   U2        0.5952
     48 O4        -13.4010  -16.7570  -40.4360 O.2       2   U2       -0.5761
     49 C5        -14.9200  -16.8690  -38.6140 C.2       2   U2       -0.3635
     50 C6        -16.0170  -17.4770  -38.1510 C.2       2   U2       -0.1126
     51 OP1       -17.0150  -15.9650  -32.9860 O.co2     2   U2       -0.7760
     52 OP2       -15.3160  -15.3580  -34.8130 O.co2     2   U2       -0.7760
     53 H5'       -18.2749  -18.2716  -34.0160 H         2   U2        0.0679
     54 H5''      -19.0565  -17.0644  -35.0579 H         2   U2        0.0679
     55 H4'       -19.4498  -19.3356  -35.8648 H         2   U2        0.1174
     56 H3'       -16.4368  -19.4847  -36.0416 H         2   U2        0.0615
     57 H2'       -16.6614  -20.8795  -37.9648 H         2   U2        0.0972
     58 H1'       -18.6010  -19.3170  -39.1330 H         2   U2        0.1824
     59 H3        -14.7704  -18.5000  -41.4539 H         2   U2        0.3154
     60 H5        -14.4306  -16.1066  -38.0261 H         2   U2        0.1811
     61 H6        -16.3957  -17.1865  -37.1822 H         2   U2        0.2188
     62 HO2'      -18.4910  -22.1340  -37.2614 H         2   U2        0.4186
     63 P         -16.2810  -21.5930  -34.4650 P.3       3   A3        1.1662
     64 C5'       -16.2750  -23.6750  -36.0600 C.3       3   A3        0.0558
     65 O5'       -15.6160  -22.5080  -35.5860 O.3       3   A3       -0.4989
     66 C4'       -15.5380  -24.2960  -37.2200 C.3       3   A3        0.1065
     67 O4'       -15.6340  -23.4310  -38.3820 O.3       3   A3       -0.3548
     68 C3'       -14.0410  -24.4950  -37.0300 C.3       3   A3        0.2022
     69 O3'       -13.7270  -25.6530  -36.2750 O.3       3   A3       -0.5246
     70 C2'       -13.5280  -24.5410  -38.4620 C.3       3   A3        0.0670
     71 O2'       -13.7430  -25.8190  -39.0460 O.3       3   A3       -0.6139
     72 C1'       -14.4400  -23.5240  -39.1470 C.3       3   A3        0.0394
     73 N1        -11.4200  -20.4090  -41.9290 N.ar      3   A3       -0.7615
     74 C2        -11.8380  -21.6680  -42.1230 C.ar      3   A3        0.5875
     75 N3        -12.6260  -22.4190  -41.3560 N.ar      3   A3       -0.6997
     76 C4        -13.0040  -21.7430  -40.2570 C.ar      3   A3        0.3053
     77 C5        -12.6570  -20.4490  -39.9180 C.ar      3   A3        0.0515
     78 C6        -11.8200  -19.7590  -40.8140 C.ar      3   A3        0.7009
     79 N6        -11.4010  -18.5060  -40.6220 N.pl3     3   A3       -0.9019
     80 N7        -13.2350  -20.0840  -38.7100 N.ar      3   A3       -0.6073
     81 C8        -13.9090  -21.1480  -38.3520 C.ar      3   A3        0.2006
     82 N9        -13.8140  -22.1910  -39.2400 N.ar      3   A3       -0.0251
     83 OP1       -16.7520  -22.4770  -33.3690 O.co2     3   A3       -0.7760
     84 OP2       -15.3400  -20.4860  -34.1620 O.co2     3   A3       -0.7760
     85 H5'       -16.3348  -24.4013  -35.2494 H         3   A3        0.0679
     86 H5''      -17.2836  -23.4111  -36.3780 H         3   A3        0.0679
     87 H4'       -15.9953  -25.2569  -37.4558 H         3   A3        0.1174
     88 H3'       -13.6255  -23.6199  -36.5303 H         3   A3        0.0615
     89 H2'       -12.4809  -24.2443  -38.5220 H         3   A3        0.0972
     90 H1'       -14.6825  -23.8773  -40.1492 H         3   A3        0.2007
     91 H2        -11.4861  -22.1394  -43.0287 H         3   A3        0.0473
     92 H8        -14.4870  -21.2005  -37.4412 H         3   A3        0.1553
     93 HO2'      -12.9045  -26.2794  -39.1271 H         3   A3        0.4186
     94 H61       -10.9795  -18.0455  -41.4160 H         3   A3        0.4115
     95 H62       -11.5002  -18.0430  -39.7299 H         3   A3        0.4115
     96 P         -12.4100  -25.6870  -35.3580 P.3       4   C4        1.1662
     97 C5'       -11.1390  -27.1610  -37.1150 C.3       4   C4        0.0558
     98 O5'       -11.2250  -25.9430  -36.3920 O.3       4   C4       -0.4989
     99 C4'       -10.2480  -27.0300  -38.3260 C.3       4   C4        0.1065
    100 O4'       -10.7370  -25.9690  -39.1890 O.3       4   C4       -0.3548
    101 C3'        -8.8020  -26.6410  -38.0530 C.3       4   C4        0.2022
    102 O3'        -7.9940  -27.7420  -37.6680 O.3       4   C4       -0.5246
    103 C2'        -8.3760  -26.0010  -39.3660 C.3       4   C4        0.0670
    104 O2'        -8.0870  -26.9860  -40.3490 O.3       4   C4       -0.6139
    105 C1'        -9.6490  -25.2550  -39.7690 C.3       4   C4        0.0066
    106 N1         -9.6630  -23.8560  -39.2720 N.am      4   C4       -0.0484
    107 C2         -9.1870  -22.8460  -40.1160 C.2       4   C4        0.7538
    108 O2         -8.7680  -23.1460  -41.2450 O.2       4   C4       -0.6252
    109 N3         -9.1900  -21.5630  -39.6870 N.2       4   C4       -0.7584
    110 C4         -9.6450  -21.2670  -38.4700 C.2       4   C4        0.8185
    111 N4         -9.6290  -19.9880  -38.0890 N.pl3     4   C4       -0.9530
    112 C5        -10.1350  -22.2710  -37.5870 C.2       4   C4       -0.5215
    113 C6        -10.1280  -23.5370  -38.0240 C.2       4   C4        0.0053
    114 OP1       -12.5020  -26.8690  -34.4630 O.co2     4   C4       -0.7760
    115 OP2       -12.2220  -24.3360  -34.7700 O.co2     4   C4       -0.7760
    116 H5'       -10.7336  -27.9324  -36.4602 H         4   C4        0.0679
    117 H5''      -12.1377  -27.4556  -37.4373 H         4   C4        0.0679
    118 H4'       -10.2626  -27.9695  -38.8785 H         4   C4        0.1174
    119 H3'        -8.7779  -25.8882  -37.2650 H         4   C4        0.0615
    120 H2'        -7.5386  -25.3175  -39.2254 H         4   C4        0.0972
    121 H1'        -9.7467  -25.2584  -40.8546 H         4   C4        0.2029
    122 H5        -10.4988  -22.0208  -36.6014 H         4   C4        0.1928
    123 H6        -10.4962  -24.3216  -37.3796 H         4   C4        0.1958
    124 H41        -9.2800  -19.2783  -38.7172 H         4   C4        0.4234
    125 H42        -9.9659  -19.7298  -37.1725 H         4   C4        0.4234
    126 HO2'       -7.2887  -27.4593  -40.1034 H         4   C4        0.4186
    127 P          -6.8500  -27.5570  -36.5570 P.3       5   G5        1.1662
    128 C5'        -5.0230  -27.3420  -38.4250 C.3       5   G5        0.0558
    129 O5'        -5.6970  -26.7630  -37.3190 O.3       5   G5       -0.4989
    130 C4'        -4.1510  -26.3340  -39.1320 C.3       5   G5        0.1065
    131 O4'        -4.9760  -25.2840  -39.7010 O.3       5   G5       -0.3548
    132 C3'        -3.1520  -25.5870  -38.2580 C.3       5   G5        0.2022
    133 O3'        -1.9880  -26.3440  -37.9790 O.3       5   G5       -0.5246
    134 C2'        -2.8820  -24.3270  -39.0690 C.3       5   G5        0.0670
    135 O2'        -1.9650  -24.5770  -40.1220 O.3       5   G5       -0.6139
    136 C1'        -4.2610  -24.0460  -39.6660 C.3       5   G5        0.0191
    137 N1         -4.9420  -19.1150  -38.5960 N.am      5   G5       -0.4787
    138 C2         -4.0590  -19.7070  -39.4680 C.2       5   G5        0.7657
    139 N2         -3.2470  -18.8830  -40.1470 N.pl3     5   G5       -0.9672
    140 N3         -3.9760  -21.0140  -39.6610 N.2       5   G5       -0.6323
    141 C4         -4.8600  -21.6920  -38.9010 C.ar      5   G5        0.1222
    142 C5         -5.7820  -21.1990  -38.0030 C.ar      5   G5        0.1744
    143 C6         -5.8590  -19.7970  -37.8040 C.2       5   G5        0.4770
    144 O6         -6.6110  -19.1660  -37.0520 O.2       5   G5       -0.5597
    145 N7         -6.5060  -22.2290  -37.4220 N.ar      5   G5       -0.5709
    146 C8         -6.0220  -23.3130  -37.9680 C.ar      5   G5        0.1374
    147 N9         -5.0200  -23.0580  -38.8740 N.ar      5   G5        0.0492
    148 OP1        -6.3270  -28.9030  -36.2070 O.co2     5   G5       -0.7760
    149 OP2        -7.3860  -26.6780  -35.4880 O.co2     5   G5       -0.7760
    150 H5'        -4.3991  -28.1620  -38.0694 H         5   G5        0.0679
    151 H5''       -5.7594  -27.7323  -39.1275 H         5   G5        0.0679
    152 H4'        -3.6120  -26.8350  -39.9361 H         5   G5        0.1174
    153 H3'        -3.6333  -25.3120  -37.3195 H         5   G5        0.0615
    154 H2'        -2.5470  -23.5071  -38.4337 H         5   G5        0.0972
    155 H1'        -4.1412  -23.6731  -40.6832 H         5   G5        0.2006
    156 H1         -4.9231  -18.1077  -38.5254 H         5   G5        0.3424
    157 H8         -6.3729  -24.3067  -37.7319 H         5   G5        0.1640
    158 H21        -3.3056  -17.8850  -40.0035 H         5   G5        0.4364
    159 H22        -2.5770  -19.2606  -40.8017 H         5   G5        0.4364
    160 HO2'       -1.0960  -24.7545  -39.7548 H         5   G5        0.4186
    161 P          -1.2040  -26.1340  -36.5920 P.3       6   A6        1.1662
    162 C5'         0.6160  -24.6110  -37.7070 C.3       6   A6        0.0558
    163 O5'        -0.4520  -24.7420  -36.7810 O.3       6   A6       -0.4989
    164 C4'         1.2350  -23.2360  -37.6470 C.3       6   A6        0.1065
    165 O4'         0.3280  -22.2630  -38.2280 O.3       6   A6       -0.3548
    166 C3'         1.5200  -22.6920  -36.2550 C.3       6   A6        0.2022
    167 O3'         2.7170  -23.2060  -35.6950 O.3       6   A6       -0.5246
    168 C2'         1.5490  -21.1880  -36.4860 C.3       6   A6        0.0670
    169 O2'         2.7880  -20.7750  -37.0460 O.3       6   A6       -0.6139
    170 C1'         0.4500  -21.0190  -37.5370 C.3       6   A6        0.0394
    171 N1         -2.6510  -17.2430  -35.9010 N.ar      6   A6       -0.7615
    172 C2         -1.4280  -17.2310  -36.4490 C.ar      6   A6        0.5875
    173 N3         -0.6770  -18.2530  -36.8530 N.ar      6   A6       -0.6997
    174 C4         -1.3120  -19.4200  -36.6420 C.ar      6   A6        0.3053
    175 C5         -2.5670  -19.5940  -36.0900 C.ar      6   A6        0.0515
    176 C6         -3.2600  -18.4320  -35.7060 C.ar      6   A6        0.7009
    177 N6         -4.4780  -18.4430  -35.1580 N.pl3     6   A6       -0.9019
    178 N7         -2.8950  -20.9400  -36.0300 N.ar      6   A6       -0.6073
    179 C8         -1.8480  -21.5420  -36.5390 C.ar      6   A6        0.2006
    180 N9         -0.8520  -20.6820  -36.9310 N.ar      6   A6       -0.0251
    181 OP1        -0.1750  -27.1990  -36.4790 O.co2     6   A6       -0.7760
    182 OP2        -2.2110  -25.9680  -35.5150 O.co2     6   A6       -0.7760
    183 H5'         0.2351  -24.7841  -38.7135 H         6   A6        0.0679
    184 H5''        1.3785  -25.3562  -37.4806 H         6   A6        0.0679
    185 H4'         2.1619  -23.2409  -38.2206 H         6   A6        0.1174
    186 H3'         0.6850  -22.9363  -35.5984 H         6   A6        0.0615
    187 H2'         1.3187  -20.6380  -35.5735 H         6   A6        0.0972
    188 H1'         0.7368  -20.2380  -38.2412 H         6   A6        0.2007
    189 H2         -0.9894  -16.2530  -36.5817 H         6   A6        0.0473
    190 H8         -1.7754  -22.6148  -36.6407 H         6   A6        0.1553
    191 H61        -4.8732  -17.6839  -34.6216 H         6   A6        0.4115
    192 H62        -5.0441  -19.2691  -35.2893 H         6   A6        0.4115
    193 HO2'        3.4846  -20.8774  -36.3934 H         6   A6        0.4186
    194 P           2.9940  -23.0670  -34.1180 P.3       7   A7        1.1662
    195 C5'         1.2650  -23.5140  -32.1980 C.3       7   A7        0.0558
    196 O5'         1.5380  -22.9660  -33.4790 O.3       7   A7       -0.4989
    197 C4'         0.1830  -22.7440  -31.4860 C.3       7   A7        0.1065
    198 O4'         0.5870  -21.3560  -31.3290 O.3       7   A7       -0.3548
    199 C3'        -1.1660  -22.6620  -32.2020 C.3       7   A7        0.2022
    200 O3'        -2.2170  -22.5240  -31.2450 O.3       7   A7       -0.5246
    201 C2'        -1.0360  -21.3800  -33.0190 C.3       7   A7        0.0670
    202 O2'        -2.2660  -20.7970  -33.3990 O.3       7   A7       -0.6139
    203 C1'        -0.2540  -20.4850  -32.0630 C.3       7   A7        0.0394
    204 N1          0.1070  -15.6890  -33.9150 N.ar      7   A7       -0.7615
    205 C2         -0.8690  -16.3300  -33.2600 C.ar      7   A7        0.5875
    206 N3         -0.8970  -17.5810  -32.8060 N.ar      7   A7       -0.6997
    207 C4          0.2550  -18.2160  -33.0890 C.ar      7   A7        0.3053
    208 C5          1.3470  -17.6910  -33.7550 C.ar      7   A7        0.0515
    209 C6          1.2510  -16.3540  -34.1850 C.ar      7   A7        0.7009
    210 N6          2.2240  -15.7160  -34.8380 N.pl3     7   A7       -0.9019
    211 N7          2.3550  -18.6380  -33.8650 N.ar      7   A7       -0.6073
    212 C8          1.8600  -19.6960  -33.2730 C.ar      7   A7        0.2006
    213 N9          0.5910  -19.5110  -32.7800 N.ar      7   A7       -0.0251
    214 OP1         3.6890  -21.7770  -33.8840 O.co2     7   A7       -0.7760
    215 OP2         3.6160  -24.3300  -33.6490 O.co2     7   A7       -0.7760
    216 H5'         2.1747  -23.4825  -31.5984 H         7   A7        0.0679
    217 H5''        0.9488  -24.5508  -32.3131 H         7   A7        0.0679
    218 H4'         0.0317  -23.1805  -30.4987 H         7   A7        0.1174
    219 H3'        -1.3266  -23.5273  -32.8451 H         7   A7        0.0615
    220 H2'        -0.4359  -21.5746  -33.9079 H         7   A7        0.0972
    221 H1'        -0.9370  -19.9665  -31.3901 H         7   A7        0.2007
    222 H2         -1.7604  -15.7495  -33.0734 H         7   A7        0.0473
    223 H8          2.3991  -20.6273  -33.1809 H         7   A7        0.1553
    224 H61         2.0965  -14.7548  -35.1207 H         7   A7        0.4115
    225 H62         3.0881  -16.1943  -35.0496 H         7   A7        0.4115
    226 HO2'       -2.8301  -21.4676  -33.7911 H         7   A7        0.4186
    227 P          -2.6760  -23.3660  -29.9700 P.3       8   G8        1.1662
    228 C5'        -2.2200  -21.2530  -28.4870 C.3       8   G8        0.0558
    229 O5'        -2.1250  -22.6590  -28.6540 O.3       8   G8       -0.4989
    230 C4'        -0.8930  -20.6520  -28.0300 C.3       8   G8        0.1065
    231 O4'        -0.2990  -19.7460  -28.9990 O.3       8   G8       -0.3548
    232 C3'        -0.7550  -19.9660  -26.6560 C.3       8   G8        0.2022
    233 O3'         0.4310  -20.4740  -26.0720 O.3       8   G8       -0.5246
    234 C2'        -0.4500  -18.5060  -27.0260 C.3       8   G8        0.0670
    235 O2'         0.2880  -17.7760  -26.0500 O.3       8   G8       -0.6139
    236 C1'         0.3690  -18.7110  -28.2980 C.3       8   G8        0.0191
    237 N1          3.5520  -16.4010  -31.5220 N.am      8   G8       -0.4787
    238 C2          3.6570  -17.6360  -30.9220 C.2       8   G8        0.7657
    239 N2          4.7600  -18.3470  -31.2030 N.pl3     8   G8       -0.9672
    240 N3          2.7300  -18.1280  -30.1020 N.2       8   G8       -0.6323
    241 C4          1.6780  -17.2890  -29.9300 C.ar      8   G8        0.1222
    242 C5          1.4890  -16.0440  -30.4880 C.ar      8   G8        0.1744
    243 C6          2.4860  -15.5200  -31.3500 C.2       8   G8        0.4770
    244 O6          2.4940  -14.4300  -31.9380 O.2       8   G8       -0.5597
    245 N7          0.2780  -15.4920  -30.0580 N.ar      8   G8       -0.5709
    246 C8         -0.2230  -16.3990  -29.2510 C.ar      8   G8        0.1374
    247 N9          0.5600  -17.5230  -29.1460 N.ar      8   G8        0.0492
    248 OP1        -2.0130  -24.6890  -30.0940 O.co2     8   G8       -0.7760
    249 OP2        -4.1600  -23.2890  -29.9480 O.co2     8   G8       -0.7760
    250 H5'        -2.9829  -21.0362  -27.7393 H         8   G8        0.0679
    251 H5''       -2.5099  -20.7995  -29.4349 H         8   G8        0.0679
    252 H4'        -0.2071  -21.4980  -27.9864 H         8   G8        0.1174
    253 H3'        -1.6349  -20.0796  -26.0228 H         8   G8        0.0615
    254 H2'        -1.3759  -17.9810  -27.2609 H         8   G8        0.0972
    255 H1'         1.3530  -19.0804  -28.0092 H         8   G8        0.2006
    256 H1          4.3034  -16.1122  -32.1320 H         8   G8        0.3424
    257 H8         -1.1568  -16.2738  -28.7229 H         8   G8        0.1640
    258 H21         5.4595  -17.9689  -31.8258 H         8   G8        0.4364
    259 H22         4.8906  -19.2601  -30.7916 H         8   G8        0.4364
    260 HO2'       -0.2812  -17.5735  -25.3039 H         8   G8        0.4186
    261 P           0.4590  -21.7450  -25.0920 P.3       9   G9        1.1662
    262 C5'         2.9380  -21.2150  -24.5490 C.3       9   G9        0.0558
    263 O5'         2.0000  -22.1220  -25.1000 O.3       9   G9       -0.4989
    264 C4'         4.2600  -21.2810  -25.2680 C.3       9   G9        0.1065
    265 O4'         4.1260  -20.7330  -26.6000 O.3       9   G9       -0.3548
    266 C3'         5.3580  -20.4540  -24.6360 C.3       9   G9        0.2022
    267 O3'         5.9610  -21.1290  -23.5460 O.3       9   G9       -0.5246
    268 C2'         6.2970  -20.1820  -25.8090 C.3       9   G9        0.0670
    269 O2'         7.1100  -21.3180  -26.0850 O.3       9   G9       -0.6139
    270 C1'         5.2980  -20.0280  -26.9550 C.3       9   G9        0.0191
    271 N1          6.5850  -15.6340  -29.2430 N.am      9   G9       -0.4787
    272 C2          7.2890  -16.8180  -29.1640 C.2       9   G9        0.7657
    273 N2          8.4900  -16.8650  -29.7750 N.pl3     9   G9       -0.9672
    274 N3          6.8540  -17.9010  -28.5330 N.2       9   G9       -0.6323
    275 C4          5.6400  -17.7000  -27.9600 C.ar      9   G9        0.1222
    276 C5          4.8590  -16.5680  -27.9670 C.ar      9   G9        0.1744
    277 C6          5.3340  -15.4180  -28.6500 C.2       9   G9        0.4770
    278 O6          4.7680  -14.3300  -28.7720 O.2       9   G9       -0.5597
    279 N7          3.6740  -16.7690  -27.2690 N.ar      9   G9       -0.5709
    280 C8          3.7600  -18.0070  -26.8530 C.ar      9   G9        0.1374
    281 N9          4.9300  -18.6300  -27.2370 N.ar      9   G9        0.0492
    282 OP1        -0.2840  -22.8880  -25.6870 O.co2     9   G9       -0.7760
    283 OP2         0.1800  -21.2450  -23.7140 O.co2     9   G9       -0.7760
    284 H5'         2.5413  -20.2030  -24.6301 H         9   G9        0.0679
    285 H5''        3.0914  -21.4551  -23.4969 H         9   G9        0.0679
    286 H4'         4.5832  -22.3198  -25.3354 H         9   G9        0.1174
    287 H3'         4.9395  -19.5104  -24.2858 H         9   G9        0.0615
    288 H2'         6.8904  -19.2801  -25.6585 H         9   G9        0.0972
    289 H1'         5.7204  -20.4725  -27.8562 H         9   G9        0.2006
    290 H1          6.9986  -14.8729  -29.7624 H         9   G9        0.3424
    291 H8          2.9926  -18.4921  -26.2681 H         9   G9        0.1640
    292 H21         8.8404  -16.0531  -30.2631 H         9   G9        0.4364
    293 H22         9.0392  -17.7121  -29.7446 H         9   G9        0.4364
    294 HO2'        6.5672  -22.0183  -26.4545 H         9   G9        0.4186
    295 P           7.1640  -20.4390  -22.7360 P.3      10   A10       1.1662
    296 C5'         9.3210  -21.8520  -22.2530 C.3      10   A10       0.0558
    297 O5'         8.4560  -21.2450  -23.2030 O.3      10   A10      -0.4989
    298 C4'         9.6780  -23.2630  -22.6490 C.3      10   A10       0.1065
    299 O4'         8.5710  -24.1510  -22.3470 O.3      10   A10      -0.3548
    300 C3'         9.9470  -23.4930  -24.1280 C.3      10   A10       0.2022
    301 O3'        11.2480  -23.0930  -24.5230 O.3      10   A10      -0.5246
    302 C2'         9.6930  -24.9850  -24.2830 C.3      10   A10       0.0670
    303 O2'        10.8160  -25.7470  -23.8640 O.3      10   A10      -0.6139
    304 C1'         8.5470  -25.2050  -23.2930 C.3      10   A10       0.0394
    305 N1          5.5840  -27.5090  -26.8230 N.ar     10   A10      -0.7615
    306 C2          6.8370  -27.7390  -26.4110 C.ar     10   A10       0.5875
    307 N3          7.5490  -27.0990  -25.4850 N.ar     10   A10      -0.6997
    308 C4          6.8330  -26.0980  -24.9440 C.ar     10   A10       0.3053
    309 C5          5.5350  -25.7420  -25.2610 C.ar     10   A10       0.0515
    310 C6          4.8920  -26.4970  -26.2560 C.ar     10   A10       0.7009
    311 N6          3.6430  -26.2690  -26.6680 N.pl3    10   A10      -0.9019
    312 N7          5.1220  -24.6590  -24.4970 N.ar     10   A10      -0.6073
    313 C8          6.1610  -24.3930  -23.7440 C.ar     10   A10       0.2006
    314 N9          7.2310  -25.2230  -23.9610 N.ar     10   A10      -0.0251
    315 OP1         6.9570  -20.7020  -21.2890 O.co2    10   A10      -0.7760
    316 OP2         7.2990  -19.0400  -23.2150 O.co2    10   A10      -0.7760
    317 H5'        10.2353  -21.2631  -22.1803 H        10   A10       0.0679
    318 H5''        8.8284  -21.8679  -21.2808 H        10   A10       0.0679
    319 H4'        10.5507  -23.5799  -22.0780 H        10   A10       0.1174
    320 H3'         9.2110  -22.9429  -24.7144 H        10   A10       0.0615
    321 H2'         9.3961  -25.2367  -25.3011 H        10   A10       0.0972
    322 H1'         8.6983  -26.1526  -22.7761 H        10   A10       0.2007
    323 H2          7.3419  -28.5598  -26.8986 H        10   A10       0.0473
    324 H8          6.1735  -23.5930  -23.0186 H        10   A10       0.1553
    325 H61         3.2354  -26.8475  -27.3886 H        10   A10       0.4115
    326 H62         3.1055  -25.5179  -26.2592 H        10   A10       0.4115
    327 HO2'       11.5406  -25.6151  -24.4798 H        10   A10       0.4186
    328 P          11.4690  -22.3850  -25.9370 P.3      11   A11       1.1662
    329 C5'        11.7270  -24.5480  -27.4000 C.3      11   A11       0.0558
    330 O5'        10.9930  -23.3730  -27.0940 O.3      11   A11      -0.4989
    331 C4'        11.0320  -25.3820  -28.4460 C.3      11   A11       0.1065
    332 O4'         9.7740  -25.8790  -27.9190 O.3      11   A11      -0.3548
    333 C3'        10.6370  -24.6570  -29.7230 C.3      11   A11       0.2022
    334 O3'        11.7140  -24.5150  -30.6350 O.3      11   A11      -0.5246
    335 C2'         9.4970  -25.5140  -30.2540 C.3      11   A11       0.0670
    336 O2'         9.9860  -26.6670  -30.9220 O.3      11   A11      -0.6139
    337 C1'         8.8100  -25.9440  -28.9560 C.3      11   A11       0.0394
    338 N1          3.8800  -24.7760  -29.8870 N.ar     11   A11      -0.7615
    339 C2          4.6990  -25.6990  -30.4040 C.ar     11   A11       0.5875
    340 N3          5.9750  -25.9490  -30.1160 N.ar     11   A11      -0.6997
    341 C4          6.4180  -25.1120  -29.1630 C.ar     11   A11       0.3053
    342 C5          5.6960  -24.1140  -28.5360 C.ar     11   A11       0.0515
    343 C6          4.3560  -23.9520  -28.9290 C.ar     11   A11       0.7009
    344 N6          3.5380  -23.0320  -28.4140 N.pl3    11   A11      -0.9019
    345 N7          6.4820  -23.4510  -27.6020 N.ar     11   A11      -0.6073
    346 C8          7.6420  -24.0530  -27.6860 C.ar     11   A11       0.2006
    347 N9          7.6760  -25.0690  -28.6100 N.ar     11   A11      -0.0251
    348 OP1        12.9350  -22.1970  -26.0690 O.co2    11   A11      -0.7760
    349 OP2        10.5720  -21.2030  -25.9440 O.co2    11   A11      -0.7760
    350 H5'        12.7111  -24.2629  -27.7720 H        11   A11       0.0679
    351 H5''       11.8464  -25.1404  -26.4929 H        11   A11       0.0679
    352 H4'        11.6676  -26.2295  -28.7025 H        11   A11       0.1174
    353 H3'        10.2524  -23.6694  -29.4683 H        11   A11       0.0615
    354 H2'         8.8256  -24.9374  -30.8902 H        11   A11       0.0972
    355 H1'         8.4568  -26.9702  -29.0570 H        11   A11       0.2007
    356 H2          4.2632  -26.3316  -31.1632 H        11   A11       0.0473
    357 H8          8.4945  -23.7759  -27.0836 H        11   A11       0.1553
    358 H61         3.7832  -22.2343  -27.8451 H        11   A11       0.4115
    359 H62         2.5555  -23.1473  -28.6176 H        11   A11       0.4115
    360 HO2'       10.4187  -26.4052  -31.7380 H        11   A11       0.4186
    361 P          11.6940  -23.3260  -31.7020 P.3      12   G12       1.1662
    362 C5'        11.0160  -20.8370  -31.2270 C.3      12   G12       0.0558
    363 O5'        11.8720  -21.9350  -30.9450 O.3      12   G12      -0.4989
    364 C4'        11.5060  -20.0410  -32.4080 C.3      12   G12       0.1065
    365 O4'        10.4300  -19.9060  -33.3660 O.3      12   G12      -0.3548
    366 C3'        11.8950  -18.6200  -32.0520 C.3      12   G12       0.2022
    367 O3'        13.2310  -18.5570  -31.5970 O.3      12   G12      -0.5246
    368 C2'        11.6360  -17.8560  -33.3400 C.3      12   G12       0.0670
    369 O2'        12.6780  -18.1140  -34.2650 O.3      12   G12      -0.6139
    370 C1'        10.3870  -18.5630  -33.8490 C.3      12   G12       0.0191
    371 N1          7.4920  -14.3450  -33.8480 N.am     12   G12      -0.4787
    372 C2          8.7360  -14.5390  -34.3980 C.2      12   G12       0.7657
    373 N2          9.2710  -13.4730  -35.0200 N.pl3    12   G12      -0.9672
    374 N3          9.4050  -15.6870  -34.3380 N.2      12   G12      -0.6323
    375 C4          8.7110  -16.6370  -33.6630 C.ar     12   G12       0.1222
    376 C5          7.4680  -16.5410  -33.0820 C.ar     12   G12       0.1744
    377 C6          6.7630  -15.3130  -33.1590 C.2      12   G12       0.4770
    378 O6          5.6430  -15.0520  -32.6940 O.2      12   G12      -0.5597
    379 N7          7.0930  -17.7350  -32.4790 N.ar     12   G12      -0.5709
    380 C8          8.1020  -18.5300  -32.7100 C.ar     12   G12       0.1374
    381 N9          9.1240  -17.9250  -33.4120 N.ar     12   G12       0.0492
    382 OP1        10.3400  -23.3480  -32.3100 O.co2    12   G12      -0.7760
    383 OP2        12.8880  -23.5370  -32.5610 O.co2    12   G12      -0.7760
    384 H5'        10.0169  -21.2144  -31.4449 H        12   G12       0.0679
    385 H5''       10.9693  -20.1872  -30.3531 H        12   G12       0.0679
    386 H4'        12.3511  -20.5501  -32.8713 H        12   G12       0.1174
    387 H3'        11.2303  -18.2485  -31.2721 H        12   G12       0.0615
    388 H2'        11.4771  -16.7908  -33.1722 H        12   G12       0.0972
    389 H1'        10.4129  -18.5807  -34.9386 H        12   G12       0.2006
    390 H1          7.0738  -13.4314  -33.9507 H        12   G12       0.3424
    391 H8          8.1337  -19.5591  -32.3840 H        12   G12       0.1640
    392 H21         8.7596  -12.6030  -35.0611 H        12   G12       0.4364
    393 H22        10.1841  -13.5426  -35.4459 H        12   G12       0.4364
    394 HO2'       13.4822  -17.6800  -33.9710 H        12   G12       0.4186
    395 P          13.4890  -17.8320  -30.4770 P.3      13   G13       1.1662
    396 C5'        14.7140  -15.9420  -31.8170 C.3      13   G13       0.0558
    397 O5'        13.6430  -16.3260  -30.9700 O.3      13   G13      -0.4989
    398 C4'        14.6350  -14.4870  -32.1840 C.3      13   G13       0.1065
    399 O4'        13.4490  -14.2550  -32.9920 O.3      13   G13      -0.3548
    400 C3'        14.4730  -13.5350  -31.0100 C.3      13   G13       0.2022
    401 O3'        15.7040  -13.2090  -30.3960 O.3      13   G13      -0.5246
    402 C2'        13.7860  -12.3440  -31.6500 C.3      13   G13       0.0670
    403 O2'        14.7270  -11.5930  -32.4050 O.3      13   G13      -0.6139
    404 C1'        12.8400  -13.0490  -32.6200 C.3      13   G13       0.0191
    405 N1          8.2730  -11.2590  -31.2140 N.am     13   G13      -0.4787
    406 C2          9.3100  -10.6050  -31.8440 C.2      13   G13       0.7657
    407 N2          9.0940   -9.3080  -32.1330 N.pl3    13   G13      -0.9672
    408 N3         10.4640  -11.1780  -32.1700 N.2      13   G13      -0.6323
    409 C4         10.4970  -12.4840  -31.7980 C.ar     13   G13       0.1222
    410 C5          9.5300  -13.2220  -31.1600 C.ar     13   G13       0.1744
    411 C6          8.2970  -12.5970  -30.8320 C.2      13   G13       0.4770
    412 O6          7.3170  -13.0870  -30.2600 O.2      13   G13      -0.5597
    413 N7          9.9570  -14.5280  -30.9570 N.ar     13   G13      -0.5709
    414 C8         11.1600  -14.5610  -31.4550 C.ar     13   G13       0.1374
    415 N9         11.5450  -13.3550  -31.9840 N.ar     13   G13       0.0492
    416 OP1        12.5270  -17.8580  -29.3450 O.co2    13   G13      -0.7760
    417 OP2        13.2400  -18.6840  -31.6670 O.co2    13   G13      -0.7760
    418 H5'        14.6757  -16.5390  -32.7281 H        13   G13       0.0679
    419 H5''       15.6583  -16.1305  -31.3062 H        13   G13       0.0679
    420 H4'        15.5212  -14.2095  -32.7548 H        13   G13       0.1174
    421 H3'        13.8078  -13.9820  -30.2713 H        13   G13       0.0615
    422 H2'        13.2537  -11.7313  -30.9224 H        13   G13       0.0972
    423 H1'        12.6820  -12.4269  -33.5010 H        13   G13       0.2006
    424 H1          7.4362  -10.7295  -31.0155 H        13   G13       0.3424
    425 H8         11.7859  -15.4412  -31.4519 H        13   G13       0.1640
    426 H21         8.2155   -8.8751  -31.8862 H        13   G13       0.4364
    427 H22         9.8105   -8.7678  -32.5966 H        13   G13       0.4364
    428 HO2'       14.8932  -10.7553  -31.9665 H        13   G13       0.4186
    429 P          15.8520  -13.2730  -28.7980 P.3      14   U14       1.1662
    430 C5'        13.6820  -12.3380  -27.6210 C.3      14   U14       0.0558
    431 O5'        14.9420  -12.0740  -28.2780 O.3      14   U14      -0.4989
    432 C4'        12.9630  -11.0140  -27.4320 C.3      14   U14       0.1065
    433 O4'        11.6720  -11.3180  -26.8340 O.3      14   U14      -0.3548
    434 C3'        13.6210  -10.0650  -26.4290 C.3      14   U14       0.2022
    435 O3'        13.2170   -8.7220  -26.6960 O.3      14   U14      -0.5246
    436 C2'        13.0380  -10.5260  -25.0960 C.3      14   U14       0.0670
    437 O2'        13.0780   -9.5560  -24.0700 O.3      14   U14      -0.6139
    438 C1'        11.6070  -10.8780  -25.4920 C.3      14   U14       0.0674
    439 N1         10.8810  -11.8780  -24.7130 N.am     14   U14       0.0418
    440 C2          9.5740  -11.5750  -24.3750 C.2      14   U14       0.4687
    441 O2          9.0450  -10.5200  -24.7240 O.2      14   U14      -0.5477
    442 N3          8.9400  -12.5470  -23.6470 N.am     14   U14      -0.3549
    443 C4          9.4460  -13.7680  -23.2310 C.2      14   U14       0.5952
    444 O4          8.7320  -14.5230  -22.5690 O.2      14   U14      -0.5761
    445 C5         10.8020  -14.0160  -23.6240 C.2      14   U14      -0.3635
    446 C6         11.4520  -13.0700  -24.3260 C.2      14   U14      -0.1126
    447 OP1        17.2620  -12.9630  -28.4540 O.co2    14   U14      -0.7760
    448 OP2        15.2460  -14.5490  -28.3310 O.co2    14   U14      -0.7760
    449 H5'        13.8611  -12.8029  -26.6515 H        14   U14       0.0679
    450 H5''       13.0764  -13.0001  -28.2399 H        14   U14       0.0679
    451 H4'        12.8278  -10.5160  -28.3921 H        14   U14       0.1174
    452 H3'        14.7065  -10.1632  -26.4428 H        14   U14       0.0615
    453 H2'        13.5554  -11.4265  -24.7651 H        14   U14       0.0972
    454 H1'        11.0233   -9.9576  -25.4740 H        14   U14       0.1824
    455 H3          7.9860  -12.3492  -23.3806 H        14   U14       0.3154
    456 H5         11.2915  -14.9424  -23.3622 H        14   U14       0.1811
    457 H6         12.4796  -13.2559  -24.6016 H        14   U14       0.2188
    458 HO2'       13.8460   -9.7091  -23.5147 H        14   U14       0.4186
    459 P          14.2160   -7.7310  -27.4690 P.3      15   U15       1.1662
    460 C5'        15.2630   -7.7200  -29.8740 C.3      15   U15       0.0558
    461 O5'        14.7720   -8.4650  -28.7680 O.3      15   U15      -0.4989
    462 C4'        16.6920   -7.2880  -29.6640 C.3      15   U15       0.1065
    463 O4'        17.4600   -8.3800  -29.0900 O.3      15   U15      -0.3548
    464 C3'        17.4690   -6.9080  -30.9150 C.3      15   U15       0.2022
    465 O3'        17.1920   -5.5910  -31.3600 O.3      15   U15      -0.5246
    466 C2'        18.9150   -7.1170  -30.4870 C.3      15   U15       0.0670
    467 O2'        19.3850   -6.0220  -29.7150 O.3      15   U15      -0.6139
    468 C1'        18.7890   -8.3440  -29.5810 C.3      15   U15       0.0674
    469 N1         19.0670   -9.6080  -30.3070 N.am     15   U15       0.0418
    470 C2         20.3870  -10.0040  -30.4040 C.2      15   U15       0.4687
    471 O2         21.3100   -9.3660  -29.9240 O.2      15   U15      -0.5477
    472 N3         20.5970  -11.1790  -31.0810 N.am     15   U15      -0.3549
    473 C4         19.6400  -11.9840  -31.6640 C.2      15   U15       0.5952
    474 O4         19.9890  -13.0140  -32.2430 O.2      15   U15      -0.5761
    475 C5         18.2960  -11.5110  -31.5240 C.2      15   U15      -0.3635
    476 C6         18.0650  -10.3720  -30.8680 C.2      15   U15      -0.1126
    477 OP1        15.3590   -7.5020  -26.5480 O.co2    15   U15      -0.7760
    478 OP2        13.3860   -6.5830  -27.9090 O.co2    15   U15      -0.7760
    479 H5'        15.2092   -8.3396  -30.7691 H        15   U15       0.0679
    480 H5''       14.6401   -6.8365  -30.0137 H        15   U15       0.0679
    481 H4'        16.7066   -6.4461  -28.9718 H        15   U15       0.1174
    482 H3'        17.2279   -7.6116  -31.7118 H        15   U15       0.0615
    483 H2'        19.5625   -7.3134  -31.3415 H        15   U15       0.0972
    484 H1'        19.4810   -8.2481  -28.7443 H        15   U15       0.1824
    485 H3         21.5553  -11.4878  -31.1612 H        15   U15       0.3154
    486 H5         17.4752  -12.0718  -31.9461 H        15   U15       0.1811
    487 H6         17.0444  -10.0321  -30.7718 H        15   U15       0.2188
    488 HO2'       19.4673   -5.2468  -30.2753 H        15   U15       0.4186
    489 P          17.5340   -5.1580  -32.8700 P.3      16   U16       1.1662
    490 C5'        16.3820   -5.9900  -35.0720 C.3      16   U16       0.0558
    491 O5'        16.8370   -6.2790  -33.7600 O.3      16   U16      -0.4989
    492 C4'        16.0650   -7.2480  -35.8420 C.3      16   U16       0.1065
    493 O4'        17.2900   -7.9740  -36.1350 O.3      16   U16      -0.3548
    494 C3'        15.1880   -8.2740  -35.1240 C.3      16   U16       0.2022
    495 O3'        14.4460   -9.0330  -36.0800 O.3      16   U16      -0.5246
    496 C2'        16.2130   -9.1710  -34.4350 C.3      16   U16       0.0670
    497 O2'        15.7360  -10.4540  -34.0880 O.3      16   U16      -0.6139
    498 C1'        17.3180   -9.2370  -35.4850 C.3      16   U16       0.0674
    499 N1         18.6580   -9.4350  -34.8800 N.am     16   U16       0.0418
    500 C2         19.2220  -10.6910  -34.9930 C.2      16   U16       0.4687
    501 O2         18.6710  -11.6190  -35.5580 O.2      16   U16      -0.5477
    502 N3         20.4620  -10.8260  -34.4190 N.am     16   U16      -0.3549
    503 C4         21.1820   -9.8550  -33.7570 C.2      16   U16       0.5952
    504 O4         22.2900  -10.1350  -33.2930 O.2      16   U16      -0.5761
    505 C5         20.5360   -8.5810  -33.6780 C.2      16   U16      -0.3635
    506 C6         19.3290   -8.4220  -34.2300 C.2      16   U16      -0.1126
    507 OP1        19.0040   -5.2690  -33.0580 O.co2    16   U16      -0.7760
    508 OP2        16.8560   -3.8660  -33.1420 O.co2    16   U16      -0.7760
    509 H5'        15.4815   -5.3793  -35.0070 H        16   U16       0.0679
    510 H5''       17.1538   -5.4321  -35.6024 H        16   U16       0.0679
    511 H4'        15.5863   -6.9732  -36.7819 H        16   U16       0.1174
    512 H3'        14.5291   -7.7952  -34.3997 H        16   U16       0.0615
    513 H2'        16.5903   -8.6712  -33.5429 H        16   U16       0.0972
    514 H1'        17.1084  -10.0319  -36.2007 H        16   U16       0.1824
    515 H3         20.8937  -11.7364  -34.4896 H        16   U16       0.3154
    516 H5         21.0191   -7.7552  -33.1769 H        16   U16       0.1811
    517 H6         18.8570   -7.4529  -34.1633 H        16   U16       0.2188
    518 HO2'       16.1188  -10.7217  -33.2493 H        16   U16       0.4186
    519 P          13.4010   -8.7190  -37.2410 P.3      17   G17       1.1662
    520 C5'        11.6900   -6.7530  -37.5250 C.3      17   G17       0.0558
    521 O5'        12.2900   -7.7240  -36.6810 O.3      17   G17      -0.4989
    522 C4'        10.5060   -6.0930  -36.8570 C.3      17   G17       0.1065
    523 O4'         9.3970   -7.0310  -36.8710 O.3      17   G17      -0.3548
    524 C3'        10.7240   -5.7210  -35.3900 C.3      17   G17       0.2022
    525 O3'         9.9660   -4.5530  -35.0810 O.3      17   G17      -0.5246
    526 C2'        10.1170   -6.9160  -34.6640 C.3      17   G17       0.0670
    527 O2'         9.7460   -6.6900  -33.3140 O.3      17   G17      -0.6139
    528 C1'         8.9130   -7.2190  -35.5520 C.3      17   G17       0.0191
    529 N1          4.9300  -10.0680  -34.2400 N.am     17   G17      -0.4787
    530 C2          5.0260   -8.7060  -34.4080 C.2      17   G17       0.7657
    531 N2          3.9140   -8.0010  -34.1850 N.pl3    17   G17      -0.9672
    532 N3          6.1310   -8.0770  -34.7750 N.2      17   G17      -0.6323
    533 C4          7.1520   -8.9350  -34.9610 C.ar     17   G17       0.1222
    534 C5          7.1650  -10.3030  -34.8310 C.ar     17   G17       0.1744
    535 C6          5.9740  -10.9670  -34.4300 C.2      17   G17       0.4770
    536 O6          5.7880  -12.1770  -34.2410 O.2      17   G17      -0.5597
    537 N7          8.4260  -10.8080  -35.1300 N.ar     17   G17      -0.5709
    538 C8          9.1390   -9.7540  -35.4190 C.ar     17   G17       0.1374
    539 N9          8.4160   -8.5870  -35.3660 N.ar     17   G17       0.0492
    540 OP1        12.7420  -10.0100  -37.5620 O.co2    17   G17      -0.7760
    541 OP2        14.1690   -8.0060  -38.2940 O.co2    17   G17      -0.7760
    542 H5'        12.4296   -5.9902  -37.7684 H        17   G17       0.0679
    543 H5''       11.3583   -7.2351  -38.4446 H        17   G17       0.0679
    544 H4'        10.2288   -5.2000  -37.4171 H        17   G17       0.1174
    545 H3'        11.7807   -5.5950  -35.1544 H        17   G17       0.0615
    546 H2'        10.8138   -7.7531  -34.7082 H        17   G17       0.0972
    547 H1'         8.1148   -6.5056  -35.3470 H        17   G17       0.2006
    548 H1          4.0355  -10.4427  -33.9579 H        17   G17       0.3424
    549 H8         10.1878   -9.7948  -35.6733 H        17   G17       0.1640
    550 H21         3.0649   -8.4718  -33.9068 H        17   G17       0.4364
    551 H22         3.9221   -6.9970  -34.2946 H        17   G17       0.4364
    552 HO2'        8.9831   -6.1079  -33.2849 H        17   G17       0.4186
    553 P          10.2990   -3.6950  -33.7670 P.3      18   G18       1.1662
    554 C5'         7.9180   -2.6950  -33.4530 C.3      18   G18       0.0558
    555 O5'         8.9090   -3.6060  -33.0110 O.3      18   G18      -0.4989
    556 C4'         6.6400   -2.8490  -32.6730 C.3      18   G18       0.1065
    557 O4'         5.9120   -4.0190  -33.1260 O.3      18   G18      -0.3548
    558 C3'         6.7710   -3.0740  -31.1750 C.3      18   G18       0.2022
    559 O3'         7.0700   -1.8980  -30.4480 O.3      18   G18      -0.5246
    560 C2'         5.4070   -3.6600  -30.8350 C.3      18   G18       0.0670
    561 O2'         4.4250   -2.6350  -30.8150 O.3      18   G18      -0.6139
    562 C1'         5.1590   -4.5470  -32.0580 C.3      18   G18       0.0191
    563 N1          3.8090   -9.1420  -30.3990 N.am     18   G18      -0.4787
    564 C2          3.0540   -8.0030  -30.5610 C.2      18   G18       0.7657
    565 N2          1.7510   -8.0930  -30.2370 N.pl3    18   G18      -0.9672
    566 N3          3.5370   -6.8560  -31.0200 N.2      18   G18      -0.6323
    567 C4          4.8540   -6.9350  -31.2990 C.ar     18   G18       0.1222
    568 C5          5.6950   -8.0150  -31.1730 C.ar     18   G18       0.1744
    569 C6          5.1680   -9.2370  -30.6850 C.2      18   G18       0.4770
    570 O6          5.7610  -10.3010  -30.5050 O.2      18   G18      -0.5597
    571 N7          6.9870   -7.6820  -31.5670 N.ar     18   G18      -0.5709
    572 C8          6.9020   -6.4250  -31.9200 C.ar     18   G18       0.1374
    573 N9          5.6280   -5.9200  -31.8000 N.ar     18   G18       0.0492
    574 OP1        10.6600   -2.3160  -34.2010 O.co2    18   G18      -0.7760
    575 OP2        11.2470   -4.4540  -32.9050 O.co2    18   G18      -0.7760
    576 H5'         7.7134   -2.8787  -34.5077 H        18   G18       0.0679
    577 H5''        8.2893   -1.6772  -33.3331 H        18   G18       0.0679
    578 H4'         6.0213   -1.9673  -32.8402 H        18   G18       0.1174
    579 H3'         7.5424   -3.8210  -30.9876 H        18   G18       0.0615
    580 H2'         5.4241   -4.2324  -29.9075 H        18   G18       0.0972
    581 H1'         4.0988   -4.5523  -32.3109 H        18   G18       0.2006
    582 H1          3.3444   -9.9672  -30.0479 H        18   G18       0.3424
    583 H8          7.7435   -5.8449  -32.2689 H        18   G18       0.1640
    584 H21         1.3757   -8.9645  -29.8909 H        18   G18       0.4364
    585 H22         1.1483   -7.2891  -30.3399 H        18   G18       0.4364
    586 HO2'        4.1105   -2.4757  -31.7079 H        18   G18       0.4186
    587 P           7.4620   -1.9890  -28.8920 P.3      19   U19       1.1662
    588 C5'         5.3150   -0.6850  -28.1400 C.3      19   U19       0.0558
    589 O5'         6.0630   -1.8910  -28.1350 O.3      19   U19      -0.4989
    590 C4'         3.9800   -0.8560  -27.4590 C.3      19   U19       0.1065
    591 O4'         3.8170   -2.2330  -27.0250 O.3      19   U19      -0.3548
    592 C3'         3.7650   -0.0390  -26.1830 C.3      19   U19       0.2022
    593 O3'         2.3700    0.1960  -25.9900 O.3      19   U19      -0.5246
    594 C2'         4.2920   -0.9660  -25.0950 C.3      19   U19       0.0670
    595 O2'         3.7920   -0.7000  -23.8010 O.3      19   U19      -0.6139
    596 C1'         3.8450   -2.3300  -25.6100 C.3      19   U19       0.0674
    597 N1          4.7910   -3.4100  -25.2350 N.am     19   U19       0.0418
    598 C2          4.3370   -4.3670  -24.3450 C.2      19   U19       0.4687
    599 O2          3.2130   -4.3530  -23.8710 O.2      19   U19      -0.5477
    600 N3          5.2440   -5.3470  -24.0280 N.am     19   U19      -0.3549
    601 C4          6.5350   -5.4670  -24.4980 C.2      19   U19       0.5952
    602 O4          7.2320   -6.4090  -24.1150 O.2      19   U19      -0.5761
    603 C5          6.9350   -4.4430  -25.4130 C.2      19   U19      -0.3635
    604 C6          6.0720   -3.4770  -25.7410 C.2      19   U19      -0.1126
    605 OP1         8.2580   -0.7830  -28.5460 O.co2    19   U19      -0.7760
    606 OP2         8.0280   -3.3370  -28.6400 O.co2    19   U19      -0.7760
    607 H5'         5.8824    0.0850  -27.6173 H        19   U19       0.0679
    608 H5''        5.1521   -0.3704  -29.1708 H        19   U19       0.0679
    609 H4'         3.1890   -0.6147  -28.1691 H        19   U19       0.1174
    610 H3'         4.3242    0.8962  -26.2121 H        19   U19       0.0615
    611 H2'         5.3811   -0.9237  -25.0787 H        19   U19       0.0972
    612 H1'         2.8486   -2.5613  -25.2334 H        19   U19       0.1824
    613 H3          4.9324   -6.0569  -23.3807 H        19   U19       0.3154
    614 H5          7.9286   -4.4505  -25.8363 H        19   U19       0.1811
    615 H6          6.3925   -2.7135  -26.4344 H        19   U19       0.2188
    616 HO2'        3.7589    0.2490  -23.6598 H        19   U19       0.4186
    617 P           1.8290    1.6980  -25.8450 P.3      20   A20       1.1662
    618 C5'        -0.2470    2.9660  -26.8260 C.3      20   A20       0.0558
    619 O5'         0.7640    1.9830  -26.9950 O.3      20   A20      -0.4989
    620 C4'        -0.7320    3.4940  -28.1520 C.3      20   A20       0.1065
    621 O4'         0.2930    4.3290  -28.7530 O.3      20   A20      -0.3548
    622 C3'        -1.0320    2.4510  -29.2180 C.3      20   A20       0.2022
    623 O3'        -2.3080    1.8530  -29.0630 O.3      20   A20      -0.5246
    624 C2'        -0.8810    3.2420  -30.5090 C.3      20   A20       0.0670
    625 O2'        -2.0370    4.0240  -30.7730 O.3      20   A20      -0.6139
    626 C1'         0.2800    4.1760  -30.1620 C.3      20   A20       0.0394
    627 N1          3.3820    3.1230  -34.1380 N.ar     20   A20      -0.7615
    628 C2          2.1610    3.6660  -34.0690 C.ar     20   A20       0.5875
    629 N3          1.4100    3.9110  -32.9980 N.ar     20   A20      -0.6997
    630 C4          2.0430    3.5280  -31.8750 C.ar     20   A20       0.3053
    631 C5          3.2970    2.9560  -31.7860 C.ar     20   A20       0.0515
    632 C6          3.9900    2.7490  -32.9930 C.ar     20   A20       0.7009
    633 N6          5.2080    2.2050  -33.0620 N.pl3    20   A20      -0.9019
    634 N7          3.6240    2.6940  -30.4630 N.ar     20   A20      -0.6073
    635 C8          2.5770    3.1080  -29.7920 C.ar     20   A20       0.2006
    636 N9          1.5820    3.6250  -30.5840 N.ar     20   A20      -0.0251
    637 OP1         3.0010    2.5760  -26.0760 O.co2    20   A20      -0.7760
    638 OP2         1.1200    1.7480  -24.5410 O.co2    20   A20      -0.7760
    639 H5'        -1.0875    2.5213  -26.2932 H        20   A20       0.0679
    640 H5''        0.1525    3.7918  -26.2373 H        20   A20       0.0679
    641 H4'        -1.6253    4.0962  -27.9865 H        20   A20       0.1174
    642 H3'        -0.2674    1.6749  -29.1833 H        20   A20       0.0615
    643 H2'        -0.6356    2.5933  -31.3499 H        20   A20       0.0972
    644 H1'         0.1229    5.1459  -30.6339 H        20   A20       0.2007
    645 H2          1.7232    3.9448  -35.0161 H        20   A20       0.0473
    646 H8          2.5039    3.0480  -28.7162 H        20   A20       0.1553
    647 H61         5.6557    2.0811  -33.9588 H        20   A20       0.4115
    648 H62         5.6813    1.9175  -32.2173 H        20   A20       0.4115
    649 HO2'       -2.7717    3.4461  -30.9919 H        20   A20       0.4186
    650 P          -2.4840    0.2870  -29.3160 P.3      21   U21       1.1662
    651 C5'        -3.2490    0.5550  -31.8080 C.3      21   U21       0.0558
    652 O5'        -2.3480   -0.0160  -30.8740 O.3      21   U21      -0.4989
    653 C4'        -2.7490    0.4120  -33.2250 C.3      21   U21       0.1065
    654 O4'        -1.5500    1.2100  -33.4090 O.3      21   U21      -0.3548
    655 C3'        -2.3280   -0.9880  -33.6500 C.3      21   U21       0.2022
    656 O3'        -3.4240   -1.8070  -34.0190 O.3      21   U21      -0.5246
    657 C2'        -1.3580   -0.7120  -34.7900 C.3      21   U21       0.0670
    658 O2'        -2.0500   -0.4090  -35.9940 O.3      21   U21      -0.6139
    659 C1'        -0.6540    0.5510  -34.2910 C.3      21   U21       0.0674
    660 N1          0.5980    0.2450  -33.5570 N.am     21   U21       0.0418
    661 C2          1.7440    0.0710  -34.3110 C.2      21   U21       0.4687
    662 O2          1.7620    0.1580  -35.5260 O.2      21   U21      -0.5477
    663 N3          2.8790   -0.2120  -33.5900 N.am     21   U21      -0.3549
    664 C4          2.9830   -0.3340  -32.2200 C.2      21   U21       0.5952
    665 O4          4.0790   -0.5920  -31.7180 O.2      21   U21      -0.5761
    666 C5          1.7590   -0.1410  -31.5060 C.2      21   U21      -0.3635
    667 C6          0.6400    0.1350  -32.1840 C.2      21   U21      -0.1126
    668 OP1        -3.8750   -0.0320  -28.9050 O.co2    21   U21      -0.7760
    669 OP2        -1.3460   -0.3670  -28.6200 O.co2    21   U21      -0.7760
    670 H5'        -4.2127    0.0531  -31.7212 H        21   U21       0.0679
    671 H5''       -3.3762    1.6132  -31.5798 H        21   U21       0.0679
    672 H4'        -3.5190    0.7707  -33.9080 H        21   U21       0.1174
    673 H3'        -1.7887   -1.4624  -32.8301 H        21   U21       0.0615
    674 H2'        -0.6561   -1.5346  -34.9272 H        21   U21       0.0972
    675 H1'        -0.4307    1.2017  -35.1365 H        21   U21       0.1824
    676 H3          3.7283   -0.3450  -34.1201 H        21   U21       0.3154
    677 H5          1.7386   -0.2175  -30.4289 H        21   U21       0.1811
    678 H6         -0.2751    0.2787  -31.6287 H        21   U21       0.2188
    679 HO2'       -2.4952   -1.1968  -36.3147 H        21   U21       0.4186
    680 P          -3.3480   -3.3860  -33.7900 P.3      22   G22       1.1662
    681 C5'        -1.9430   -4.7700  -32.0620 C.3      22   G22       0.0558
    682 O5'        -2.8010   -3.6710  -32.3210 O.3      22   G22      -0.4989
    683 C4'        -2.7140   -6.0560  -31.9240 C.3      22   G22       0.1065
    684 O4'        -2.3590   -6.9650  -32.9960 O.3      22   G22      -0.3548
    685 C3'        -2.4120   -6.8220  -30.6510 C.3      22   G22       0.2022
    686 O3'        -3.1730   -6.3290  -29.5690 O.3      22   G22      -0.5246
    687 C2'        -2.7310   -8.2620  -31.0280 C.3      22   G22       0.0670
    688 O2'        -4.1330   -8.4930  -31.0000 O.3      22   G22      -0.6139
    689 C1'        -2.2720   -8.2910  -32.4840 C.3      22   G22       0.0191
    690 N1          0.9650  -12.1920  -31.9980 N.am     22   G22      -0.4787
    691 C2         -0.3690  -12.1070  -31.6460 C.2      22   G22       0.7657
    692 N2         -0.9460  -13.1850  -31.1130 N.pl3    22   G22      -0.9672
    693 N3         -1.1110  -11.0370  -31.8200 N.2      22   G22      -0.6323
    694 C4         -0.4100  -10.0360  -32.3690 C.ar     22   G22       0.1222
    695 C5          0.9210   -9.9990  -32.7360 C.ar     22   G22       0.1744
    696 C6          1.7150  -11.1550  -32.5510 C.2      22   G22       0.4770
    697 O6          2.9210  -11.3010  -32.8310 O.2      22   G22      -0.5597
    698 N7          1.2600   -8.7610  -33.2580 N.ar     22   G22      -0.5709
    699 C8          0.1530   -8.0750  -33.1960 C.ar     22   G22       0.1374
    700 N9         -0.8940   -8.7840  -32.6520 N.ar     22   G22       0.0492
    701 OP1        -2.3430   -3.8920  -34.7600 O.co2    22   G22      -0.7760
    702 OP2        -4.7480   -3.8750  -33.8640 O.co2    22   G22      -0.7760
    703 H5'        -1.2362   -4.8684  -32.8859 H        22   G22       0.0679
    704 H5''       -1.3925   -4.5833  -31.1400 H        22   G22       0.0679
    705 H4'        -3.7819   -5.8427  -31.9713 H        22   G22       0.1174
    706 H3'        -1.3508   -6.7345  -30.4179 H        22   G22       0.0615
    707 H2'        -2.1856   -8.9771  -30.4122 H        22   G22       0.0972
    708 H1'        -2.9461   -8.9319  -33.0522 H        22   G22       0.2006
    709 H1          1.4326  -13.0736  -31.8425 H        22   G22       0.3424
    710 H8          0.0663   -7.0539  -33.5369 H        22   G22       0.1640
    711 H21        -0.4078  -14.0278  -30.9712 H        22   G22       0.4364
    712 H22        -1.9211  -13.1585  -30.8512 H        22   G22       0.4364
    713 HO2'       -4.3267   -9.3356  -31.4173 H        22   G22       0.4186
    714 P          -2.5110   -6.1780  -28.1200 P.3      23   G23       1.1662
    715 C5'        -3.8180   -8.2290  -27.1520 C.3      23   G23       0.0558
    716 O5'        -2.5820   -7.6460  -27.5210 O.3      23   G23      -0.4989
    717 C4'        -3.5990   -9.5840  -26.5400 C.3      23   G23       0.1065
    718 O4'        -3.2000  -10.5320  -27.5680 O.3      23   G23      -0.3548
    719 C3'        -2.4820   -9.6730  -25.5110 C.3      23   G23       0.2022
    720 O3'        -2.8480   -9.1790  -24.2260 O.3      23   G23      -0.5246
    721 C2'        -2.1480  -11.1560  -25.5360 C.3      23   G23       0.0670
    722 O2'        -3.1370  -11.9050  -24.8380 O.3      23   G23      -0.6139
    723 C1'        -2.2780  -11.4510  -27.0340 C.3      23   G23       0.0191
    724 N1          2.2680  -13.4890  -28.0990 N.am     23   G23      -0.4787
    725 C2          1.2180  -14.0160  -27.3940 C.2      23   G23       0.7657
    726 N2          1.4110  -15.2470  -26.8850 N.pl3    23   G23      -0.9672
    727 N3          0.0760  -13.3820  -27.1870 N.2      23   G23      -0.6323
    728 C4          0.0550  -12.1630  -27.7510 C.ar     23   G23       0.1222
    729 C5          1.0500  -11.5430  -28.4770 C.ar     23   G23       0.1744
    730 C6          2.2710  -12.2350  -28.6970 C.2      23   G23       0.4770
    731 O6          3.2760  -11.8560  -29.3290 O.2      23   G23      -0.5597
    732 N7          0.6380  -10.2860  -28.8940 N.ar     23   G23      -0.5709
    733 C8         -0.5750  -10.1610  -28.4130 C.ar     23   G23       0.1374
    734 N9         -0.9900  -11.2720  -27.7180 N.ar     23   G23       0.0492
    735 OP1        -3.4130   -5.3100  -27.3090 O.co2    23   G23      -0.7760
    736 OP2        -1.0790   -5.8130  -28.2910 O.co2    23   G23      -0.7760
    737 H5'        -4.3163   -7.5847  -26.4277 H        23   G23       0.0679
    738 H5''       -4.4468   -8.3305  -28.0365 H        23   G23       0.0679
    739 H4'        -4.5296   -9.9234  -26.0851 H        23   G23       0.1174
    740 H3'        -1.6216   -9.1108  -25.8739 H        23   G23       0.0615
    741 H2'        -1.1432  -11.3565  -25.1641 H        23   G23       0.0972
    742 H1'        -2.6393  -12.4686  -27.1824 H        23   G23       0.2006
    743 H1          3.1006  -14.0533  -28.1906 H        23   G23       0.3424
    744 H8         -1.1835   -9.2791  -28.5483 H        23   G23       0.1640
    745 H21         2.2868  -15.7257  -27.0394 H        23   G23       0.4364
    746 H22         0.6800  -15.6920  -26.3487 H        23   G23       0.4364
    747 HO2'       -2.7345  -12.3436  -24.0849 H        23   G23       0.4186
    748 P          -1.7180   -8.8860  -23.1210 P.3      24   G24       1.1662
    749 C5'        -2.1240   -7.5760  -20.8840 C.3      24   G24       0.0558
    750 O5'        -2.5460   -8.5830  -21.7930 O.3      24   G24      -0.4989
    751 C4'        -1.2040   -8.1340  -19.8280 C.3      24   G24       0.1065
    752 O4'        -1.2330   -9.5840  -19.8650 O.3      24   G24      -0.3548
    753 C3'         0.2700   -7.7900  -19.9800 C.3      24   G24       0.2022
    754 O3'         0.5920   -6.5000  -19.4880 O.3      24   G24      -0.5246
    755 C2'         0.9550   -8.9210  -19.2230 C.3      24   G24       0.0670
    756 O2'         0.9300   -8.6900  -17.8220 O.3      24   G24      -0.6139
    757 C1'         0.0410  -10.1020  -19.5500 C.3      24   G24       0.0191
    758 N1          2.0760   -9.9160  -24.2110 N.am     24   G24      -0.4787
    759 C2          1.7240   -8.8890  -23.3690 C.2      24   G24       0.7657
    760 N2          1.9420   -7.6450  -23.8250 N.pl3    24   G24      -0.9672
    761 N3          1.1990   -9.0660  -22.1690 N.2      24   G24      -0.6323
    762 C4          1.0470  -10.3730  -21.8710 C.ar     24   G24       0.1222
    763 C5          1.3660  -11.4730  -22.6390 C.ar     24   G24       0.1744
    764 C6          1.9280  -11.2690  -23.9240 C.2      24   G24       0.4770
    765 O6          2.2780  -12.1160  -24.7560 O.2      24   G24      -0.5597
    766 N7          1.0560  -12.6480  -21.9690 N.ar     24   G24      -0.5709
    767 C8          0.5630  -12.2500  -20.8280 C.ar     24   G24       0.1374
    768 N9          0.5300  -10.8820  -20.7030 N.ar     24   G24       0.0492
    769 OP1        -1.0050   -7.6430  -23.5110 O.co2    24   G24      -0.7760
    770 OP2        -0.9480  -10.1380  -22.9080 O.co2    24   G24      -0.7760
    771 H5'        -1.5974   -6.7982  -21.4370 H        24   G24       0.0679
    772 H5''       -2.9992   -7.1409  -20.4015 H        24   G24       0.0679
    773 H4'        -1.5458   -7.7987  -18.8488 H        24   G24       0.1174
    774 H3'         0.5434   -7.8487  -21.0335 H        24   G24       0.0615
    775 H2'         1.9700   -9.0877  -19.5837 H        24   G24       0.0972
    776 H1'        -0.0371  -10.7524  -18.6788 H        24   G24       0.2006
    777 H1          2.4725   -9.6698  -25.1067 H        24   G24       0.3424
    778 H8          0.2165  -12.9265  -20.0607 H        24   G24       0.1640
    779 H21         1.7044   -6.8481  -23.2517 H        24   G24       0.4364
    780 H22         2.3435   -7.5062  -24.7413 H        24   G24       0.4364
    781 HO2'        1.5022   -7.9491  -17.6091 H        24   G24       0.4186
    782 P           1.6400   -5.5800  -20.2730 P.3      25   G25       1.1662
    783 C5'         3.7660   -6.0260  -18.8040 C.3      25   G25       0.0558
    784 O5'         3.1080   -6.1590  -20.0550 O.3      25   G25      -0.4989
    785 C4'         5.0650   -6.7900  -18.7780 C.3      25   G25       0.1065
    786 O4'         5.8450   -6.4790  -19.9670 O.3      25   G25      -0.3548
    787 C3'         6.0100   -6.4690  -17.6200 C.3      25   G25       0.2022
    788 O3'         6.7790   -7.6250  -17.2870 O.3      25   G25      -0.5246
    789 C2'         6.9180   -5.3950  -18.2100 C.3      25   G25       0.0670
    790 O2'         8.1540   -5.2350  -17.5440 O.3      25   G25      -0.6139
    791 C1'         7.1020   -5.8990  -19.6380 C.3      25   G25       0.0191
    792 N1          5.3060   -1.7570  -21.9900 N.am     25   G25      -0.4787
    793 C2          4.6820   -2.5980  -21.1020 C.2      25   G25       0.7657
    794 N2          3.4090   -2.3020  -20.7950 N.pl3    25   G25      -0.9672
    795 N3          5.2580   -3.6540  -20.5520 N.2      25   G25      -0.6323
    796 C4          6.5330   -3.8060  -20.9690 C.ar     25   G25       0.1222
    797 C5          7.2490   -3.0240  -21.8510 C.ar     25   G25       0.1744
    798 C6          6.6170   -1.8960  -22.4330 C.2      25   G25       0.4770
    799 O6          7.0850   -1.0820  -23.2370 O.2      25   G25      -0.5597
    800 N7          8.5350   -3.5200  -22.0130 N.ar     25   G25      -0.5709
    801 C8          8.5770   -4.5730  -21.2430 C.ar     25   G25       0.1374
    802 N9          7.3970   -4.8050  -20.5800 N.ar     25   G25       0.0492
    803 OP1         1.5730   -4.2440  -19.6260 O.co2    25   G25      -0.7760
    804 OP2         1.2990   -5.7160  -21.7130 O.co2    25   G25      -0.7760
    805 H5'         3.9722   -4.9711  -18.6230 H        25   G25       0.0679
    806 H5''        3.1142   -6.4028  -18.0158 H        25   G25       0.0679
    807 H4'         4.8461   -7.8578  -18.7690 H        25   G25       0.1174
    808 H3'         5.4633   -6.0941  -16.7547 H        25   G25       0.0615
    809 H2'         6.3891   -4.4421  -18.2270 H        25   G25       0.0972
    810 H1'         7.8883   -6.6530  -19.6751 H        25   G25       0.2006
    811 H1          4.7724   -0.9782  -22.3488 H        25   G25       0.3424
    812 H8          9.4512   -5.1985  -21.1379 H        25   G25       0.1640
    813 H21         2.9631   -1.4972  -21.2116 H        25   G25       0.4364
    814 H22         2.8972   -2.8841  -20.1475 H        25   G25       0.4364
    815 HO2'        7.9983   -4.9177  -16.6514 H        25   G25       0.4186
    816 P           6.2490   -8.6860  -16.2110 P.3      26   U26       1.1662
    817 C5'         7.5610  -10.8730  -16.8260 C.3      26   U26       0.0558
    818 O5'         6.3390  -10.1490  -16.8350 O.3      26   U26      -0.4989
    819 C4'         7.6130  -11.8920  -17.9370 C.3      26   U26       0.1065
    820 O4'         7.5480  -11.1960  -19.2110 O.3      26   U26      -0.3548
    821 C3'         8.8660  -12.7660  -17.9910 C.3      26   U26       0.2022
    822 O3'         8.5190  -14.0860  -18.4130 O.3      26   U26      -0.5246
    823 C2'         9.7100  -12.0840  -19.0630 C.3      26   U26       0.0670
    824 O2'        10.6540  -12.9240  -19.6950 O.3      26   U26      -0.6139
    825 C1'         8.6360  -11.5990  -20.0350 C.3      26   U26       0.0674
    826 N1          9.0940  -10.4460  -20.8470 N.am     26   U26       0.0418
    827 C2         10.3400  -10.5430  -21.4390 C.2      26   U26       0.4687
    828 O2         11.0580  -11.5200  -21.3190 O.2      26   U26      -0.5477
    829 N3         10.7190   -9.4520  -22.1810 N.am     26   U26      -0.3549
    830 C4          9.9990   -8.2960  -22.3880 C.2      26   U26       0.5952
    831 O4         10.4800   -7.3990  -23.0840 O.2      26   U26      -0.5761
    832 C5          8.7200   -8.2650  -21.7460 C.2      26   U26      -0.3635
    833 C6          8.3230   -9.3140  -21.0190 C.2      26   U26      -0.1126
    834 OP1         4.8150   -8.3680  -15.9930 O.co2    26   U26      -0.7760
    835 OP2         7.1990   -8.6130  -15.0710 O.co2    26   U26      -0.7760
    836 H5'         8.3873  -10.1730  -16.9498 H        26   U26       0.0679
    837 H5''        7.6662  -11.3834  -15.8686 H        26   U26       0.0679
    838 H4'         6.7415  -12.5412  -17.8524 H        26   U26       0.1174
    839 H3'         9.3811  -12.7797  -17.0305 H        26   U26       0.0615
    840 H2'        10.2218  -11.2247  -18.6296 H        26   U26       0.0972
    841 H1'         8.3272  -12.4156  -20.6876 H        26   U26       0.1824
    842 H3         11.6254   -9.5024  -22.6238 H        26   U26       0.3154
    843 H5          8.0807   -7.4006  -21.8483 H        26   U26       0.1811
    844 H6          7.3539   -9.2741  -20.5440 H        26   U26       0.2188
    845 HO2'       10.7129  -12.6965  -20.6258 H        26   U26       0.4186
    846 P           8.1400  -15.2090  -17.3280 P.3      27   A27       1.1662
    847 C5'         5.7900  -15.7310  -18.5160 C.3      27   A27       0.0558
    848 O5'         6.5450  -15.2800  -17.3870 O.3      27   A27      -0.4989
    849 C4'         4.5140  -14.9610  -18.7390 C.3      27   A27       0.1065
    850 O4'         4.8420  -13.6510  -19.2790 O.3      27   A27      -0.3548
    851 C3'         3.5860  -15.6230  -19.7580 C.3      27   A27       0.2022
    852 O3'         2.2290  -15.4850  -19.3380 O.3      27   A27      -0.5246
    853 C2'         3.8270  -14.7980  -21.0190 C.3      27   A27       0.0670
    854 O2'         2.7520  -14.8040  -21.9380 O.3      27   A27      -0.6139
    855 C1'         4.0720  -13.4100  -20.4360 C.3      27   A27       0.0394
    856 N1          5.1110   -8.7570  -22.3850 N.ar     27   A27      -0.7615
    857 C2          4.2910   -9.1420  -21.4060 C.ar     27   A27       0.5875
    858 N3          4.0670  -10.3670  -20.9400 N.ar     27   A27      -0.6997
    859 C4          4.7970  -11.2750  -21.6140 C.ar     27   A27       0.3053
    860 C5          5.6820  -11.0070  -22.6400 C.ar     27   A27       0.0515
    861 C6          5.8460   -9.6710  -23.0470 C.ar     27   A27       0.7009
    862 N6          6.6640   -9.2800  -24.0350 N.pl3    27   A27      -0.9019
    863 N7          6.2630  -12.1850  -23.0780 N.ar     27   A27      -0.6073
    864 C8          5.7400  -13.1240  -22.3370 C.ar     27   A27       0.2006
    865 N9          4.8410  -12.6350  -21.4180 N.ar     27   A27      -0.0251
    866 OP1         8.5280  -14.7050  -15.9870 O.co2    27   A27      -0.7760
    867 OP2         8.6740  -16.5090  -17.8070 O.co2    27   A27      -0.7760
    868 H5'         6.4110  -15.6328  -19.4064 H        27   A27       0.0679
    869 H5''        5.5439  -16.7834  -18.3750 H        27   A27       0.0679
    870 H4'         3.9892  -14.8432  -17.7910 H        27   A27       0.1174
    871 H3'         3.8488  -16.6695  -19.9125 H        27   A27       0.0615
    872 H2'         4.7318  -15.1487  -21.5155 H        27   A27       0.0972
    873 H1'         3.1332  -12.9140  -20.1893 H        27   A27       0.2007
    874 H2          3.7331   -8.3512  -20.9266 H        27   A27       0.0473
    875 H8          5.9864  -14.1709  -22.4349 H        27   A27       0.1553
    876 HO2'        2.1288  -15.4935  -21.6977 H        27   A27       0.4186
    877 H61         7.3821   -9.9523  -24.2641 H        27   A27       0.4115
    878 H62         6.5704   -8.3925  -24.5079 H        27   A27       0.4115
    879 P           1.1110  -16.5090  -19.8700 P.3      28   G28       1.1662
    880 C5'        -1.4970  -16.2340  -19.9130 C.3      28   G28       0.0558
    881 O5'        -0.2550  -15.9210  -19.3000 O.3      28   G28      -0.4989
    882 C4'        -2.4870  -16.7790  -18.9140 C.3      28   G28       0.1065
    883 O4'        -2.7830  -15.7700  -17.9110 O.3      28   G28      -0.3548
    884 C3'        -3.8580  -17.1630  -19.4710 C.3      28   G28       0.2022
    885 O3'        -4.4120  -18.2320  -18.7020 O.3      28   G28      -0.5246
    886 C2'        -4.6760  -15.8940  -19.2600 C.3      28   G28       0.0670
    887 O2'        -6.0760  -16.0930  -19.2300 O.3      28   G28      -0.6139
    888 C1'        -4.1430  -15.4040  -17.9170 C.3      28   G28       0.0191
    889 N1         -3.2280  -10.8610  -20.0220 N.am     28   G28      -0.4787
    890 C2         -2.9450  -12.1180  -20.4990 C.2      28   G28       0.7657
    891 N2         -2.3370  -12.1790  -21.6920 N.pl3    28   G28      -0.9672
    892 N3         -3.2350  -13.2350  -19.8510 N.2      28   G28      -0.6323
    893 C4         -3.8410  -12.9920  -18.6710 C.ar     28   G28       0.1222
    894 C5         -4.1690  -11.7780  -18.1060 C.ar     28   G28       0.1744
    895 C6         -3.8520  -10.5870  -18.8080 C.2      28   G28       0.4770
    896 O6         -4.0610   -9.4170  -18.4740 O.2      28   G28      -0.5597
    897 N7         -4.7860  -11.9590  -16.8760 N.ar     28   G28      -0.5709
    898 C8         -4.8220  -13.2540  -16.7190 C.ar     28   G28       0.1374
    899 N9         -4.2660  -13.9420  -17.7710 N.ar     28   G28       0.0492
    900 OP1         1.3490  -17.8260  -19.2270 O.co2    28   G28      -0.7760
    901 OP2         1.0670  -16.4140  -21.3510 O.co2    28   G28      -0.7760
    902 H5'        -1.3301  -16.9809  -20.6891 H        28   G28       0.0679
    903 H5''       -1.9080  -15.3326  -20.3675 H        28   G28       0.0679
    904 H4'        -2.0499  -17.6480  -18.4221 H        28   G28       0.1174
    905 H3'        -3.7976  -17.4246  -20.5274 H        28   G28       0.0615
    906 H2'        -4.4286  -15.1691  -20.0355 H        28   G28       0.0972
    907 H1'        -4.6671  -15.9050  -17.1031 H        28   G28       0.2006
    908 H1         -2.9626  -10.0742  -20.5970 H        28   G28       0.3424
    909 H8         -5.2457  -13.7363  -15.8505 H        28   G28       0.1640
    910 H21        -2.1133  -11.3286  -22.1889 H        28   G28       0.4364
    911 H22        -2.1026  -13.0754  -22.0941 H        28   G28       0.4364
    912 HO2'       -6.3387  -16.6353  -19.9773 H        28   G28       0.4186
    913 P          -4.8000  -19.6090  -19.4210 P.3      29   U29       1.1662
    914 C5'        -7.2830  -19.1600  -20.1350 C.3      29   U29       0.0558
    915 O5'        -5.9250  -19.3270  -20.5120 O.3      29   U29      -0.4989
    916 C4'        -8.0550  -18.3740  -21.1660 C.3      29   U29       0.1065
    917 O4'        -7.3910  -17.1080  -21.4260 O.3      29   U29      -0.3548
    918 C3'        -8.1810  -19.0180  -22.5480 C.3      29   U29       0.2022
    919 O3'        -9.4260  -18.6500  -23.1430 O.3      29   U29      -0.5246
    920 C2'        -7.0300  -18.3860  -23.3210 C.3      29   U29       0.0670
    921 O2'        -7.1730  -18.4210  -24.7270 O.3      29   U29      -0.6139
    922 C1'        -7.0440  -16.9570  -22.7820 C.3      29   U29       0.0674
    923 N1         -5.7300  -16.2880  -22.9280 N.am     29   U29       0.0418
    924 C2         -5.7040  -14.9120  -22.7950 C.2      29   U29       0.4687
    925 O2         -6.7010  -14.2470  -22.5670 O.2      29   U29      -0.5477
    926 N3         -4.4660  -14.3350  -22.9370 N.am     29   U29      -0.3549
    927 C4         -3.2730  -14.9790  -23.1940 C.2      29   U29       0.5952
    928 O4         -2.2400  -14.3150  -23.2940 O.2      29   U29      -0.5761
    929 C5         -3.3750  -16.4000  -23.3170 C.2      29   U29      -0.3635
    930 C6         -4.5680  -16.9870  -23.1840 C.2      29   U29      -0.1126
    931 OP1        -5.3910  -20.4670  -18.3610 O.co2    29   U29      -0.7760
    932 OP2        -3.5740  -20.0550  -20.1280 O.co2    29   U29      -0.7760
    933 H5'        -7.3228  -18.6294  -19.1837 H        29   U29       0.0679
    934 H5''       -7.7434  -20.1408  -20.0160 H        29   U29       0.0679
    935 H4'        -9.0542  -18.1737  -20.7793 H        29   U29       0.1174
    936 H3'        -8.0733  -20.1012  -22.4919 H        29   U29       0.0615
    937 H2'        -6.0950  -18.8705  -23.0395 H        29   U29       0.0972
    938 H1'        -7.8110  -16.3775  -23.2957 H        29   U29       0.1824
    939 H3         -4.4241  -13.3302  -22.8431 H        29   U29       0.3154
    940 H5         -2.4951  -16.9939  -23.5157 H        29   U29       0.1811
    941 H6         -4.6257  -18.0610  -23.2816 H        29   U29       0.2188
    942 HO2'       -7.7956  -19.1106  -24.9687 H        29   U29       0.4186
    943 P          -9.9870  -19.4810  -24.3880 P.3      30   U30       1.1662
    944 C5'       -10.2110  -17.8400  -26.4210 C.3      30   U30       0.0558
    945 O5'       -10.8260  -18.5080  -25.3300 O.3      30   U30      -0.4989
    946 C4'       -10.1490  -16.3490  -26.1960 C.3      30   U30       0.1065
    947 O4'        -9.0100  -16.0230  -25.3550 O.3      30   U30      -0.3548
    948 C3'        -9.9520  -15.4910  -27.4360 C.3      30   U30       0.2022
    949 O3'       -11.1500  -15.2890  -28.1650 O.3      30   U30      -0.5246
    950 C2'        -9.3620  -14.2090  -26.8620 C.3      30   U30       0.0670
    951 O2'       -10.3730  -13.3770  -26.3140 O.3      30   U30      -0.6139
    952 C1'        -8.4960  -14.7540  -25.7250 C.3      30   U30       0.0674
    953 N1         -7.0730  -14.8890  -26.1170 N.am     30   U30       0.0418
    954 C2         -6.2570  -13.7880  -25.9210 C.2      30   U30       0.4687
    955 O2         -6.6590  -12.7380  -25.4500 O.2      30   U30      -0.5477
    956 N3         -4.9480  -13.9600  -26.2970 N.am     30   U30      -0.3549
    957 C4         -4.3780  -15.0920  -26.8370 C.2      30   U30       0.5952
    958 O4         -3.1810  -15.0900  -27.1250 O.2      30   U30      -0.5761
    959 C5         -5.2810  -16.1900  -27.0100 C.2      30   U30      -0.3635
    960 C6         -6.5610  -16.0520  -26.6510 C.2      30   U30      -0.1126
    961 OP1       -10.9210  -20.4830  -23.8120 O.co2    30   U30      -0.7760
    962 OP2        -8.7940  -19.9380  -25.1440 O.co2    30   U30      -0.7760
    963 H5'        -9.1973  -18.2216  -26.5433 H        30   U30       0.0679
    964 H5''      -10.7798  -18.0406  -27.3289 H        30   U30       0.0679
    965 H4'       -11.0611  -16.0318  -25.6906 H        30   U30       0.1174
    966 H3'        -9.2148  -15.9644  -28.0845 H        30   U30       0.0615
    967 H2'        -8.7634  -13.6774  -27.6018 H        30   U30       0.0972
    968 H1'        -8.5663  -14.0801  -24.8712 H        30   U30       0.1824
    969 H3         -4.3347  -13.1688  -26.1629 H        30   U30       0.3154
    970 H5         -4.9304  -17.1224  -27.4273 H        30   U30       0.1811
    971 H6         -7.2261  -16.8921  -26.7858 H        30   U30       0.2188
    972 HO2'      -10.6629  -12.7460  -26.9768 H        30   U30       0.4186
    973 P         -11.0830  -14.7550  -29.6670 P.3      31   G31       1.1662
    974 C5'        -9.8790  -12.7280  -30.8150 C.3      31   G31       0.0558
    975 O5'       -10.5090  -13.2690  -29.6640 O.3      31   G31      -0.4989
    976 C4'        -9.0020  -11.5510  -30.4650 C.3      31   G31       0.1065
    977 O4'        -8.0120  -11.9500  -29.4840 O.3      31   G31      -0.3548
    978 C3'        -8.1820  -10.9680  -31.6050 C.3      31   G31       0.2022
    979 O3'        -8.9270  -10.0960  -32.4360 O.3      31   G31      -0.5246
    980 C2'        -7.0360  -10.2830  -30.8720 C.3      31   G31       0.0670
    981 O2'        -7.4340   -9.0160  -30.3670 O.3      31   G31      -0.6139
    982 C1'        -6.8110  -11.2360  -29.6990 C.3      31   G31       0.0191
    983 N1         -5.5720  -16.0850  -30.6340 N.am     31   G31      -0.4787
    984 C2         -6.8080  -15.5240  -30.4230 C.2      31   G31       0.7657
    985 N2         -7.8570  -16.3580  -30.4650 N.pl3    31   G31      -0.9672
    986 N3         -7.0050  -14.2370  -30.1880 N.2      31   G31      -0.6323
    987 C4         -5.8460  -13.5430  -30.1790 C.ar     31   G31       0.1222
    988 C5         -4.5630  -14.0060  -30.3780 C.ar     31   G31       0.1744
    989 C6         -4.3680  -15.3900  -30.6290 C.2      31   G31       0.4770
    990 O6         -3.3070  -15.9930  -30.8300 O.2      31   G31      -0.5597
    991 N7         -3.6450  -12.9710  -30.2900 N.ar     31   G31      -0.5709
    992 C8         -4.3720  -11.9140  -30.0410 C.ar     31   G31       0.1374
    993 N9         -5.7170  -12.1920  -29.9630 N.ar     31   G31       0.0492
    994 OP1       -12.4870  -14.7060  -30.1460 O.co2    31   G31      -0.7760
    995 OP2       -10.1010  -15.6260  -30.3640 O.co2    31   G31      -0.7760
    996 H5'       -10.6458  -12.4014  -31.5175 H        31   G31       0.0679
    997 H5''       -9.2697  -13.5001  -31.2848 H        31   G31       0.0679
    998 H4'        -9.6230  -10.7632  -30.0387 H        31   G31       0.1174
    999 H3'        -7.7825  -11.7822  -32.2097 H        31   G31       0.0615
   1000 H2'        -6.1487  -10.2036  -31.5001 H        31   G31       0.0972
   1001 H1'        -6.5735  -10.6567  -28.8067 H        31   G31       0.2006
   1002 H1         -5.5351  -17.0795  -30.8061 H        31   G31       0.3424
   1003 H8         -3.9595  -10.9245  -29.9100 H        31   G31       0.1640
   1004 H21        -7.7133  -17.3415  -30.6442 H        31   G31       0.4364
   1005 H22        -8.7909  -16.0027  -30.3174 H        31   G31       0.4364
   1006 HO2'       -6.6681   -8.5561  -30.0155 H        31   G31       0.4186
   1007 P          -9.0150  -10.1990  -34.0240 P.3      32   U32       1.1662
   1008 C5'        -6.6820   -9.0990  -34.4990 C.3      32   U32       0.0558
   1009 O5'        -7.5390  -10.2240  -34.6250 O.3      32   U32      -0.4989
   1010 C4'        -5.2540   -9.4490  -34.8370 C.3      32   U32       0.1065
   1011 O4'        -4.7390  -10.4080  -33.8760 O.3      32   U32      -0.3548
   1012 C3'        -5.0280  -10.1170  -36.1850 C.3      32   U32       0.2022
   1013 O3'        -4.9890   -9.1950  -37.2600 O.3      32   U32      -0.5246
   1014 C2'        -3.7180  -10.8610  -35.9710 C.3      32   U32       0.0670
   1015 O2'        -2.6050   -9.9860  -36.0770 O.3      32   U32      -0.6139
   1016 C1'        -3.8570  -11.3120  -34.5160 C.3      32   U32       0.0674
   1017 N1         -4.4420  -12.6710  -34.4030 N.am     32   U32       0.0418
   1018 C2         -3.6210  -13.7390  -34.7110 C.2      32   U32       0.4687
   1019 O2         -2.4610  -13.6080  -35.0600 O.2      32   U32      -0.5477
   1020 N3         -4.2050  -14.9750  -34.5900 N.am     32   U32      -0.3549
   1021 C4         -5.4990  -15.2510  -34.2030 C.2      32   U32       0.5952
   1022 O4         -5.8770  -16.4220  -34.1440 O.2      32   U32      -0.5761
   1023 C5         -6.2910  -14.0970  -33.9000 C.2      32   U32      -0.3635
   1024 C6         -5.7470  -12.8810  -34.0080 C.2      32   U32      -0.1126
   1025 OP1        -9.6750   -8.9470  -34.4770 O.co2    32   U32      -0.7760
   1026 OP2        -9.6500  -11.5080  -34.3130 O.co2    32   U32      -0.7760
   1027 H5'        -7.0241   -8.3162  -35.1759 H        32   U32       0.0679
   1028 H5''       -6.7261   -8.7295  -33.4745 H        32   U32       0.0679
   1029 H4'        -4.6494   -8.5434  -34.7880 H        32   U32       0.1174
   1030 H3'        -5.8241  -10.8398  -36.3633 H        32   U32       0.0615
   1031 H2'        -3.6251  -11.7111  -36.6468 H        32   U32       0.0972
   1032 H1'        -2.8833  -11.2870  -34.0268 H        32   U32       0.1824
   1033 H3         -3.6223  -15.7704  -34.8087 H        32   U32       0.3154
   1034 H5         -7.3186  -14.2083  -33.5870 H        32   U32       0.1811
   1035 H6         -6.3583  -12.0217  -33.7749 H        32   U32       0.2188
   1036 HO2'       -2.5098   -9.6975  -36.9876 H        32   U32       0.4186
   1037 P          -5.7410   -9.5300  -38.6420 P.3      33   C33       1.1662
   1038 C5'        -3.4590  -10.2020  -39.7460 C.3      33   C33       0.0558
   1039 O5'        -4.7740  -10.5720  -39.3630 O.3      33   C33      -0.4989
   1040 C4'        -2.6390  -11.4020  -40.1530 C.3      33   C33       0.1065
   1041 O4'        -2.4820  -12.3010  -39.0230 O.3      33   C33      -0.3548
   1042 C3'        -3.2340  -12.2800  -41.2450 C.3      33   C33       0.2022
   1043 O3'        -3.0060  -11.7730  -42.5480 O.3      33   C33      -0.5246
   1044 C2'        -2.5690  -13.6250  -40.9890 C.3      33   C33       0.0670
   1045 O2'        -1.2450  -13.6510  -41.5000 O.3      33   C33      -0.6139
   1046 C1'        -2.5110  -13.6510  -39.4600 C.3      33   C33       0.0066
   1047 N1         -3.6940  -14.3180  -38.8630 N.am     33   C33      -0.0484
   1048 C2         -3.7120  -15.7190  -38.8140 C.2      33   C33       0.7538
   1049 O2         -2.7490  -16.3540  -39.2700 O.2      33   C33      -0.6252
   1050 N3         -4.7790  -16.3520  -38.2730 N.2      33   C33      -0.7584
   1051 C4         -5.8020  -15.6470  -37.7920 C.2      33   C33       0.8185
   1052 N4         -6.8340  -16.3140  -37.2690 N.pl3    33   C33      -0.9530
   1053 C5         -5.8140  -14.2240  -37.8270 C.2      33   C33      -0.5215
   1054 C6         -4.7530  -13.6080  -38.3630 C.2      33   C33       0.0053
   1055 OP1        -5.7710   -8.2910  -39.4590 O.co2    33   C33      -0.7760
   1056 OP2        -7.0090  -10.2260  -38.3180 O.co2    33   C33      -0.7760
   1057 H5'        -2.9713   -9.7096  -38.9047 H        33   C33       0.0679
   1058 H5''       -3.5137   -9.5066  -40.5835 H        33   C33       0.0679
   1059 H4'        -1.6535  -11.0628  -40.4723 H        33   C33       0.1174
   1060 H3'        -4.3074  -12.3753  -41.0815 H        33   C33       0.0615
   1061 H2'        -3.1661  -14.4482  -41.3813 H        33   C33       0.0972
   1062 H1'        -1.6026  -14.1596  -39.1370 H        33   C33       0.2029
   1063 H5         -6.6487  -13.6617  -37.4354 H        33   C33       0.1928
   1064 H6         -4.7318  -12.5289  -38.4019 H        33   C33       0.1958
   1065 H41        -6.8232  -17.3237  -37.2459 H        33   C33       0.4234
   1066 H42        -7.6253  -15.8088  -36.8965 H        33   C33       0.4234
   1067 HO2'       -1.2715  -13.6349  -42.4595 H        33   C33       0.4186
   1068 P          -4.1470  -11.8980  -43.6730 P.3      34   G34       1.1662
   1069 C5'        -2.9480  -13.9930  -44.6980 C.3      34   G34       0.0558
   1070 O5'        -4.1060  -13.4340  -44.0960 O.3      34   G34      -0.4989
   1071 C4'        -3.0820  -15.4860  -44.8720 C.3      34   G34       0.1065
   1072 O4'        -3.1180  -16.1310  -43.5720 O.3      34   G34      -0.3548
   1073 C3'        -4.3490  -15.9680  -45.5600 C.3      34   G34       0.2022
   1074 O3'        -4.2920  -15.8510  -46.9720 O.3      34   G34      -0.5246
   1075 C2'        -4.4680  -17.4050  -45.0710 C.3      34   G34       0.0670
   1076 O2'        -3.6090  -18.2690  -45.8000 O.3      34   G34      -0.6139
   1077 C1'        -3.9500  -17.2810  -43.6380 C.3      34   G34       0.0191
   1078 N1         -7.4970  -19.7340  -40.9350 N.am     34   G34      -0.4787
   1079 C2         -6.5740  -20.2330  -41.8210 C.2      34   G34       0.7657
   1080 N2         -6.5940  -21.5610  -42.0190 N.pl3    34   G34      -0.9672
   1081 N3         -5.6940  -19.4870  -42.4680 N.2      34   G34      -0.6323
   1082 C4         -5.8110  -18.1800  -42.1550 C.ar     34   G34       0.1222
   1083 C5         -6.6970  -17.5800  -41.2830 C.ar     34   G34       0.1744
   1084 C6         -7.6350  -18.3940  -40.5950 C.2      34   G34       0.4770
   1085 O6         -8.5020  -18.0490  -39.7830 O.2      34   G34      -0.5597
   1086 N7         -6.4930  -16.2090  -41.2380 N.ar     34   G34      -0.5709
   1087 C8         -5.5060  -16.0020  -42.0700 C.ar     34   G34       0.1374
   1088 N9         -5.0450  -17.1540  -42.6590 N.ar     34   G34       0.0492
   1089 OP1        -3.7280  -11.0870  -44.8470 O.co2    34   G34      -0.7760
   1090 OP2        -5.4590  -11.6330  -43.0300 O.co2    34   G34      -0.7760
   1091 H5'        -2.8006  -13.5343  -45.6757 H        34   G34       0.0679
   1092 H5''       -2.0820  -13.7827  -44.0703 H        34   G34       0.0679
   1093 H4'        -2.2183  -15.8553  -45.4249 H        34   G34       0.1174
   1094 H3'        -5.1974  -15.3933  -45.1884 H        34   G34       0.0615
   1095 H2'        -5.5008  -17.7525  -45.0953 H        34   G34       0.0972
   1096 H1'        -3.3573  -18.1633  -43.3964 H        34   G34       0.2006
   1097 H1         -8.1246  -20.3926  -40.4963 H        34   G34       0.3424
   1098 H8         -5.0948  -15.0243  -42.2735 H        34   G34       0.1640
   1099 H21        -7.2642  -22.1348  -41.5274 H        34   G34       0.4364
   1100 H22        -5.9389  -21.9860  -42.6595 H        34   G34       0.4364
   1101 HO2'       -4.1321  -18.8224  -46.3846 H        34   G34       0.4186
   1102 P          -5.6320  -15.5720  -47.8140 P.3      35   U35       1.1662
   1103 C5'        -5.7200  -18.0690  -48.6100 C.3      35   U35       0.0558
   1104 O5'        -6.3330  -16.9990  -47.9060 O.3      35   U35      -0.4989
   1105 C4'        -6.3270  -19.4000  -48.2420 C.3      35   U35       0.1065
   1106 O4'        -6.2120  -19.6210  -46.8120 O.3      35   U35      -0.3548
   1107 C3'        -7.8150  -19.5560  -48.5210 C.3      35   U35       0.2022
   1108 O3'        -8.0980  -19.8700  -49.8740 O.3      35   U35      -0.5246
   1109 C2'        -8.2240  -20.6480  -47.5430 C.3      35   U35       0.0670
   1110 O2'        -7.8510  -21.9330  -48.0190 O.3      35   U35      -0.6139
   1111 C1'        -7.3650  -20.3020  -46.3240 C.3      35   U35       0.0674
   1112 N1         -8.0790  -19.4250  -45.3640 N.am     35   U35       0.0418
   1113 C2         -8.8320  -20.0430  -44.3840 C.2      35   U35       0.4687
   1114 O2         -8.9290  -21.2540  -44.2820 O.2      35   U35      -0.5477
   1115 N3         -9.4720  -19.1910  -43.5180 N.am     35   U35      -0.3549
   1116 C4         -9.4400  -17.8120  -43.5320 C.2      35   U35       0.5952
   1117 O4        -10.0740  -17.1840  -42.6810 O.2      35   U35      -0.5761
   1118 C5         -8.6400  -17.2420  -44.5730 C.2      35   U35      -0.3635
   1119 C6         -8.0040  -18.0510  -45.4290 C.2      35   U35      -0.1126
   1120 OP1        -5.2380  -15.1640  -49.1860 O.co2    35   U35      -0.7760
   1121 OP2        -6.5050  -14.6830  -47.0050 O.co2    35   U35      -0.7760
   1122 H5'        -5.8478  -17.9065  -49.6802 H        35   U35       0.0679
   1123 H5''       -4.6554  -18.0859  -48.3765 H        35   U35       0.0679
   1124 H4'        -5.7866  -20.1894  -48.7644 H        35   U35       0.1174
   1125 H3'        -8.3261  -18.6305  -48.2557 H        35   U35       0.0615
   1126 H2'        -9.2878  -20.5999  -47.3104 H        35   U35       0.0972
   1127 H1'        -7.0601  -21.2198  -45.8212 H        35   U35       0.1824
   1128 H3        -10.0266  -19.6208  -42.7916 H        35   U35       0.3154
   1129 H5         -8.5504  -16.1698  -44.6669 H        35   U35       0.1811
   1130 H6         -7.4033  -17.6052  -46.2079 H        35   U35       0.2188
   1131 HO2'       -8.3850  -22.1587  -48.7842 H        35   U35       0.4186
   1132 P          -9.3700  -19.2180  -50.6080 P.3      36   A36       1.1662
   1133 C5'       -10.8010  -21.3830  -50.2390 C.3      36   A36       0.0558
   1134 O5'       -10.6130  -19.9990  -49.9900 O.3      36   A36      -0.4989
   1135 C4'       -11.9230  -21.9510  -49.4060 C.3      36   A36       0.1065
   1136 O4'       -11.5590  -21.9160  -48.0000 O.3      36   A36      -0.3548
   1137 C3'       -13.2440  -21.1970  -49.4660 C.3      36   A36       0.2022
   1138 O3'       -14.0020  -21.4990  -50.6250 O.3      36   A36      -0.5246
   1139 C2'       -13.9200  -21.6110  -48.1670 C.3      36   A36       0.0670
   1140 O2'       -14.5120  -22.8960  -48.2810 O.3      36   A36      -0.6139
   1141 C1'       -12.7270  -21.6950  -47.2140 C.3      36   A36       0.0394
   1142 N1        -14.2100  -19.0850  -43.0250 N.ar     36   A36      -0.7615
   1143 C2        -14.5720  -20.2770  -43.5180 C.ar     36   A36       0.5875
   1144 N3        -14.1440  -20.8970  -44.6150 N.ar     36   A36      -0.6997
   1145 C4        -13.2270  -20.1540  -45.2570 C.ar     36   A36       0.3053
   1146 C5        -12.7520  -18.9120  -44.8730 C.ar     36   A36       0.0515
   1147 C6        -13.2850  -18.3650  -43.6920 C.ar     36   A36       0.7009
   1148 N6        -12.9240  -17.1760  -43.2000 N.pl3    36   A36      -0.9019
   1149 N7        -11.8080  -18.4450  -45.7770 N.ar     36   A36      -0.6073
   1150 C8        -11.7330  -19.4000  -46.6710 C.ar     36   A36       0.2006
   1151 N9        -12.5630  -20.4630  -46.4190 N.ar     36   A36      -0.0251
   1152 OP1        -9.2890  -19.5510  -52.0520 O.co2    36   A36      -0.7760
   1153 OP2        -9.4650  -17.7980  -50.1880 O.co2    36   A36      -0.7760
   1154 H5'       -11.0379  -21.5233  -51.2937 H        36   A36       0.0679
   1155 H5''       -9.8790  -21.9158  -50.0065 H        36   A36       0.0679
   1156 H4'       -12.0933  -22.9863  -49.7013 H        36   A36       0.1174
   1157 H3'       -13.0449  -20.1257  -49.4390 H        36   A36       0.0615
   1158 H2'       -14.6434  -20.8653  -47.8373 H        36   A36       0.0972
   1159 H1'       -12.8681  -22.5392  -46.5391 H        36   A36       0.2007
   1160 H2        -15.3160  -20.8098  -42.9443 H        36   A36       0.0473
   1161 H8        -11.0775  -19.3545  -47.5281 H        36   A36       0.1553
   1162 HO2'      -15.4679  -22.8122  -48.2512 H        36   A36       0.4186
   1163 H61       -12.9731  -17.2048  -42.1916 H        36   A36       0.4115
   1164 H62       -12.6461  -16.3754  -43.7495 H        36   A36       0.4115
   1165 P         -14.9750  -20.3930  -51.2630 P.3      37   C37       1.1662
   1166 C5'       -17.1220  -21.3740  -50.1210 C.3      37   C37       0.0558
   1167 O5'       -16.1920  -20.3090  -50.2370 O.3      37   C37      -0.4989
   1168 C4'       -18.0720  -21.1630  -48.9650 C.3      37   C37       0.1065
   1169 O4'       -17.3220  -21.0550  -47.7270 O.3      37   C37      -0.3548
   1170 C3'       -18.9060  -19.8920  -49.0060 C.3      37   C37       0.2022
   1171 O3'       -20.0450  -20.0030  -49.8440 O.3      37   C37      -0.6541
   1172 C2'       -19.2450  -19.6710  -47.5400 C.3      37   C37       0.0670
   1173 O2'       -20.3190  -20.5050  -47.1280 O.3      37   C37      -0.6139
   1174 C1'       -17.9600  -20.1400  -46.8550 C.3      37   C37       0.0066
   1175 N1        -17.0350  -19.0160  -46.5630 N.am     37   C37      -0.0484
   1176 C2        -17.1360  -18.3750  -45.3210 C.2      37   C37       0.7538
   1177 O2        -17.9910  -18.7620  -44.5090 O.2      37   C37      -0.6252
   1178 N3        -16.3050  -17.3490  -45.0310 N.2      37   C37      -0.7584
   1179 C4        -15.3960  -16.9530  -45.9220 C.2      37   C37       0.8185
   1180 N4        -14.5960  -15.9360  -45.5910 N.pl3    37   C37      -0.9530
   1181 C5        -15.2680  -17.5830  -47.1920 C.2      37   C37      -0.5215
   1182 C6        -16.0950  -18.5980  -47.4680 C.2      37   C37       0.0053
   1183 OP1       -15.4980  -20.9270  -52.5480 O.co2    37   C37      -0.7760
   1184 OP2       -14.2670  -19.0880  -51.2440 O.co2    37   C37      -0.7760
   1185 H5'       -17.6982  -21.4417  -51.0438 H        37   C37       0.0679
   1186 H5''      -16.5788  -22.3070  -49.9705 H        37   C37       0.0679
   1187 H4'       -18.7409  -22.0210  -48.8978 H        37   C37       0.1174
   1188 H3'       -18.2841  -19.0683  -49.3565 H        37   C37       0.0615
   1189 H2'       -19.4502  -18.6212  -47.3304 H        37   C37       0.0972
   1190 H1'       -18.2136  -20.6477  -45.9244 H        37   C37       0.2029
   1191 H5        -14.5294  -17.2533  -47.9076 H        37   C37       0.1928
   1192 H6        -16.0201  -19.0975  -48.4226 H        37   C37       0.1958
   1193 H41       -14.6906  -15.4920  -44.6887 H        37   C37       0.4234
   1194 H42       -13.8964  -15.6109  -46.2429 H        37   C37       0.4234
   1195 HO3'      -20.5329  -19.1763  -49.8328 H        37   C37       0.4376
   1196 HO2'      -21.1298  -20.2171  -47.5538 H        37   C37       0.4186
@<TRIPOS>BOND
     1    1    2 1
     2    1    3 1
     3    3    5 1
     4    3    4 1
     5    4    9 1
     6    5    7 1
     7    5    6 1
     8    7    9 1
     9    7    8 1
    10    9   20 1
    11   10   11 1
    12   10   16 am
    13   11   12 2
    14   11   13 2
    15   13   14 1
    16   14   20 ar
    17   14   15 ar
    18   15   18 ar
    19   15   16 1
    20   16   17 2
    21   18   19 ar
    22   19   20 ar
    23   33   52 1
    24   33   51 1
    25   33   35 1
    26   34   36 1
    27   34   35 1
    28   36   38 1
    29   36   37 1
    30   37   42 1
    31   38   39 1
    32   38   40 1
    33   40   41 1
    34   40   42 1
    35   42   43 1
    36   43   50 1
    37   43   44 am
    38   44   46 am
    39   44   45 2
    40   46   47 am
    41   47   48 2
    42   47   49 1
    43   49   50 2
    44   33    6 1
    45   63   84 1
    46   63   83 1
    47   63   65 1
    48   64   66 1
    49   64   65 1
    50   66   67 1
    51   66   68 1
    52   67   72 1
    53   68   70 1
    54   68   69 1
    55   70   72 1
    56   70   71 1
    57   72   82 1
    58   73   78 ar
    59   73   74 ar
    60   74   75 ar
    61   75   76 ar
    62   76   77 ar
    63   76   82 ar
    64   77   78 ar
    65   77   80 ar
    66   78   79 1
    67   80   81 ar
    68   81   82 ar
    69   39   63 1
    70   96   98 1
    71   96  115 1
    72   96  114 1
    73   97   98 1
    74   97   99 1
    75   99  101 1
    76   99  100 1
    77  100  105 1
    78  101  103 1
    79  101  102 1
    80  103  104 1
    81  103  105 1
    82  105  106 1
    83  106  107 am
    84  106  113 1
    85  107  108 2
    86  107  109 1
    87  109  110 2
    88  110  112 2
    89  110  111 2
    90  112  113 2
    91   69   96 1
    92  127  148 1
    93  127  149 1
    94  127  129 1
    95  128  129 1
    96  128  130 1
    97  130  132 1
    98  130  131 1
    99  131  136 1
   100  132  134 1
   101  132  133 1
   102  134  136 1
   103  134  135 1
   104  136  147 1
   105  137  138 1
   106  137  143 am
   107  138  139 2
   108  138  140 2
   109  140  141 1
   110  141  147 ar
   111  141  142 ar
   112  142  145 ar
   113  142  143 1
   114  143  144 2
   115  145  146 ar
   116  146  147 ar
   117  102  127 1
   118  161  182 1
   119  161  181 1
   120  161  163 1
   121  162  164 1
   122  162  163 1
   123  164  165 1
   124  164  166 1
   125  165  170 1
   126  166  168 1
   127  166  167 1
   128  168  170 1
   129  168  169 1
   130  170  180 1
   131  171  176 ar
   132  171  172 ar
   133  172  173 ar
   134  173  174 ar
   135  174  175 ar
   136  174  180 ar
   137  175  176 ar
   138  175  178 ar
   139  176  177 1
   140  178  179 ar
   141  179  180 ar
   142  133  161 1
   143  194  215 1
   144  194  214 1
   145  194  196 1
   146  195  197 1
   147  195  196 1
   148  197  198 1
   149  197  199 1
   150  198  203 1
   151  199  201 1
   152  199  200 1
   153  201  203 1
   154  201  202 1
   155  203  213 1
   156  204  209 ar
   157  204  205 ar
   158  205  206 ar
   159  206  207 ar
   160  207  208 ar
   161  207  213 ar
   162  208  209 ar
   163  208  211 ar
   164  209  210 1
   165  211  212 ar
   166  212  213 ar
   167  167  194 1
   168  227  248 1
   169  227  249 1
   170  227  229 1
   171  228  229 1
   172  228  230 1
   173  230  232 1
   174  230  231 1
   175  231  236 1
   176  232  234 1
   177  232  233 1
   178  234  236 1
   179  234  235 1
   180  236  247 1
   181  237  238 1
   182  237  243 am
   183  238  239 2
   184  238  240 2
   185  240  241 1
   186  241  247 ar
   187  241  242 ar
   188  242  245 ar
   189  242  243 1
   190  243  244 2
   191  245  246 ar
   192  246  247 ar
   193  200  227 1
   194  261  282 1
   195  261  283 1
   196  261  263 1
   197  262  263 1
   198  262  264 1
   199  264  266 1
   200  264  265 1
   201  265  270 1
   202  266  268 1
   203  266  267 1
   204  268  270 1
   205  268  269 1
   206  270  281 1
   207  271  272 1
   208  271  277 am
   209  272  273 2
   210  272  274 2
   211  274  275 1
   212  275  281 ar
   213  275  276 ar
   214  276  279 ar
   215  276  277 1
   216  277  278 2
   217  279  280 ar
   218  280  281 ar
   219  233  261 1
   220  295  316 1
   221  295  315 1
   222  295  297 1
   223  296  298 1
   224  296  297 1
   225  298  299 1
   226  298  300 1
   227  299  304 1
   228  300  302 1
   229  300  301 1
   230  302  304 1
   231  302  303 1
   232  304  314 1
   233  305  310 ar
   234  305  306 ar
   235  306  307 ar
   236  307  308 ar
   237  308  309 ar
   238  308  314 ar
   239  309  310 ar
   240  309  312 ar
   241  310  311 1
   242  312  313 ar
   243  313  314 ar
   244  267  295 1
   245  328  349 1
   246  328  348 1
   247  328  330 1
   248  329  331 1
   249  329  330 1
   250  331  332 1
   251  331  333 1
   252  332  337 1
   253  333  335 1
   254  333  334 1
   255  335  337 1
   256  335  336 1
   257  337  347 1
   258  338  343 ar
   259  338  339 ar
   260  339  340 ar
   261  340  341 ar
   262  341  342 ar
   263  341  347 ar
   264  342  343 ar
   265  342  345 ar
   266  343  344 1
   267  345  346 ar
   268  346  347 ar
   269  301  328 1
   270  361  382 1
   271  361  383 1
   272  361  363 1
   273  362  363 1
   274  362  364 1
   275  364  366 1
   276  364  365 1
   277  365  370 1
   278  366  368 1
   279  366  367 1
   280  368  370 1
   281  368  369 1
   282  370  381 1
   283  371  372 1
   284  371  377 am
   285  372  373 2
   286  372  374 2
   287  374  375 1
   288  375  381 ar
   289  375  376 ar
   290  376  379 ar
   291  376  377 1
   292  377  378 2
   293  379  380 ar
   294  380  381 ar
   295  334  361 1
   296  395  416 1
   297  395  417 1
   298  395  397 1
   299  396  397 1
   300  396  398 1
   301  398  400 1
   302  398  399 1
   303  399  404 1
   304  400  402 1
   305  400  401 1
   306  402  404 1
   307  402  403 1
   308  404  415 1
   309  405  406 1
   310  405  411 am
   311  406  407 2
   312  406  408 2
   313  408  409 1
   314  409  415 ar
   315  409  410 ar
   316  410  413 ar
   317  410  411 1
   318  411  412 2
   319  413  414 ar
   320  414  415 ar
   321  367  395 1
   322  429  448 1
   323  429  447 1
   324  429  431 1
   325  430  432 1
   326  430  431 1
   327  432  434 1
   328  432  433 1
   329  433  438 1
   330  434  435 1
   331  434  436 1
   332  436  437 1
   333  436  438 1
   334  438  439 1
   335  439  446 1
   336  439  440 am
   337  440  442 am
   338  440  441 2
   339  442  443 am
   340  443  444 2
   341  443  445 1
   342  445  446 2
   343  401  429 1
   344  459  478 1
   345  459  477 1
   346  459  461 1
   347  460  462 1
   348  460  461 1
   349  462  464 1
   350  462  463 1
   351  463  468 1
   352  464  465 1
   353  464  466 1
   354  466  467 1
   355  466  468 1
   356  468  469 1
   357  469  476 1
   358  469  470 am
   359  470  472 am
   360  470  471 2
   361  472  473 am
   362  473  474 2
   363  473  475 1
   364  475  476 2
   365  435  459 1
   366  489  508 1
   367  489  507 1
   368  489  491 1
   369  490  492 1
   370  490  491 1
   371  492  494 1
   372  492  493 1
   373  493  498 1
   374  494  495 1
   375  494  496 1
   376  496  497 1
   377  496  498 1
   378  498  499 1
   379  499  506 1
   380  499  500 am
   381  500  502 am
   382  500  501 2
   383  502  503 am
   384  503  504 2
   385  503  505 1
   386  505  506 2
   387  465  489 1
   388  519  540 1
   389  519  541 1
   390  519  521 1
   391  520  521 1
   392  520  522 1
   393  522  524 1
   394  522  523 1
   395  523  528 1
   396  524  526 1
   397  524  525 1
   398  526  528 1
   399  526  527 1
   400  528  539 1
   401  529  530 1
   402  529  535 am
   403  530  531 2
   404  530  532 2
   405  532  533 1
   406  533  539 ar
   407  533  534 ar
   408  534  537 ar
   409  534  535 1
   410  535  536 2
   411  537  538 ar
   412  538  539 ar
   413  495  519 1
   414  553  574 1
   415  553  575 1
   416  553  555 1
   417  554  555 1
   418  554  556 1
   419  556  558 1
   420  556  557 1
   421  557  562 1
   422  558  560 1
   423  558  559 1
   424  560  562 1
   425  560  561 1
   426  562  573 1
   427  563  564 1
   428  563  569 am
   429  564  565 2
   430  564  566 2
   431  566  567 1
   432  567  573 ar
   433  567  568 ar
   434  568  571 ar
   435  568  569 1
   436  569  570 2
   437  571  572 ar
   438  572  573 ar
   439  525  553 1
   440  587  606 1
   441  587  605 1
   442  587  589 1
   443  588  590 1
   444  588  589 1
   445  590  592 1
   446  590  591 1
   447  591  596 1
   448  592  593 1
   449  592  594 1
   450  594  595 1
   451  594  596 1
   452  596  597 1
   453  597  604 1
   454  597  598 am
   455  598  600 am
   456  598  599 2
   457  600  601 am
   458  601  602 2
   459  601  603 1
   460  603  604 2
   461  559  587 1
   462  617  638 1
   463  617  637 1
   464  617  619 1
   465  618  620 1
   466  618  619 1
   467  620  621 1
   468  620  622 1
   469  621  626 1
   470  622  624 1
   471  622  623 1
   472  624  626 1
   473  624  625 1
   474  626  636 1
   475  627  632 ar
   476  627  628 ar
   477  628  629 ar
   478  629  630 ar
   479  630  631 ar
   480  630  636 ar
   481  631  632 ar
   482  631  634 ar
   483  632  633 1
   484  634  635 ar
   485  635  636 ar
   486  593  617 1
   487  650  669 1
   488  650  668 1
   489  650  652 1
   490  651  653 1
   491  651  652 1
   492  653  655 1
   493  653  654 1
   494  654  659 1
   495  655  656 1
   496  655  657 1
   497  657  658 1
   498  657  659 1
   499  659  660 1
   500  660  667 1
   501  660  661 am
   502  661  663 am
   503  661  662 2
   504  663  664 am
   505  664  665 2
   506  664  666 1
   507  666  667 2
   508  623  650 1
   509  680  701 1
   510  680  702 1
   511  680  682 1
   512  681  682 1
   513  681  683 1
   514  683  685 1
   515  683  684 1
   516  684  689 1
   517  685  687 1
   518  685  686 1
   519  687  689 1
   520  687  688 1
   521  689  700 1
   522  690  691 1
   523  690  696 am
   524  691  692 2
   525  691  693 2
   526  693  694 1
   527  694  700 ar
   528  694  695 ar
   529  695  698 ar
   530  695  696 1
   531  696  697 2
   532  698  699 ar
   533  699  700 ar
   534  656  680 1
   535  714  735 1
   536  714  736 1
   537  714  716 1
   538  715  716 1
   539  715  717 1
   540  717  719 1
   541  717  718 1
   542  718  723 1
   543  719  721 1
   544  719  720 1
   545  721  723 1
   546  721  722 1
   547  723  734 1
   548  724  725 1
   549  724  730 am
   550  725  726 2
   551  725  727 2
   552  727  728 1
   553  728  734 ar
   554  728  729 ar
   555  729  732 ar
   556  729  730 1
   557  730  731 2
   558  732  733 ar
   559  733  734 ar
   560  686  714 1
   561  748  769 1
   562  748  770 1
   563  748  750 1
   564  749  750 1
   565  749  751 1
   566  751  753 1
   567  751  752 1
   568  752  757 1
   569  753  755 1
   570  753  754 1
   571  755  757 1
   572  755  756 1
   573  757  768 1
   574  758  759 1
   575  758  764 am
   576  759  760 2
   577  759  761 2
   578  761  762 1
   579  762  768 ar
   580  762  763 ar
   581  763  766 ar
   582  763  764 1
   583  764  765 2
   584  766  767 ar
   585  767  768 ar
   586  720  748 1
   587  782  803 1
   588  782  804 1
   589  782  784 1
   590  783  784 1
   591  783  785 1
   592  785  787 1
   593  785  786 1
   594  786  791 1
   595  787  789 1
   596  787  788 1
   597  789  791 1
   598  789  790 1
   599  791  802 1
   600  792  793 1
   601  792  798 am
   602  793  794 2
   603  793  795 2
   604  795  796 1
   605  796  802 ar
   606  796  797 ar
   607  797  800 ar
   608  797  798 1
   609  798  799 2
   610  800  801 ar
   611  801  802 ar
   612  754  782 1
   613  816  835 1
   614  816  834 1
   615  816  818 1
   616  817  819 1
   617  817  818 1
   618  819  821 1
   619  819  820 1
   620  820  825 1
   621  821  822 1
   622  821  823 1
   623  823  824 1
   624  823  825 1
   625  825  826 1
   626  826  833 1
   627  826  827 am
   628  827  829 am
   629  827  828 2
   630  829  830 am
   631  830  831 2
   632  830  832 1
   633  832  833 2
   634  788  816 1
   635  846  867 1
   636  846  866 1
   637  846  848 1
   638  847  849 1
   639  847  848 1
   640  849  850 1
   641  849  851 1
   642  850  855 1
   643  851  853 1
   644  851  852 1
   645  853  855 1
   646  853  854 1
   647  855  865 1
   648  856  861 ar
   649  856  857 ar
   650  857  858 ar
   651  858  859 ar
   652  859  860 ar
   653  859  865 ar
   654  860  861 ar
   655  860  863 ar
   656  861  862 1
   657  863  864 ar
   658  864  865 ar
   659  822  846 1
   660  879  900 1
   661  879  901 1
   662  879  881 1
   663  880  881 1
   664  880  882 1
   665  882  884 1
   666  882  883 1
   667  883  888 1
   668  884  886 1
   669  884  885 1
   670  886  888 1
   671  886  887 1
   672  888  899 1
   673  889  890 1
   674  889  895 am
   675  890  891 2
   676  890  892 2
   677  892  893 1
   678  893  899 ar
   679  893  894 ar
   680  894  897 ar
   681  894  895 1
   682  895  896 2
   683  897  898 ar
   684  898  899 ar
   685  852  879 1
   686  913  932 1
   687  913  931 1
   688  913  915 1
   689  914  916 1
   690  914  915 1
   691  916  918 1
   692  916  917 1
   693  917  922 1
   694  918  919 1
   695  918  920 1
   696  920  921 1
   697  920  922 1
   698  922  923 1
   699  923  930 1
   700  923  924 am
   701  924  926 am
   702  924  925 2
   703  926  927 am
   704  927  928 2
   705  927  929 1
   706  929  930 2
   707  885  913 1
   708  943  962 1
   709  943  961 1
   710  943  945 1
   711  944  946 1
   712  944  945 1
   713  946  948 1
   714  946  947 1
   715  947  952 1
   716  948  949 1
   717  948  950 1
   718  950  951 1
   719  950  952 1
   720  952  953 1
   721  953  960 1
   722  953  954 am
   723  954  956 am
   724  954  955 2
   725  956  957 am
   726  957  958 2
   727  957  959 1
   728  959  960 2
   729  919  943 1
   730  973  994 1
   731  973  995 1
   732  973  975 1
   733  974  975 1
   734  974  976 1
   735  976  978 1
   736  976  977 1
   737  977  982 1
   738  978  980 1
   739  978  979 1
   740  980  982 1
   741  980  981 1
   742  982  993 1
   743  983  984 1
   744  983  989 am
   745  984  985 2
   746  984  986 2
   747  986  987 1
   748  987  993 ar
   749  987  988 ar
   750  988  991 ar
   751  988  989 1
   752  989  990 2
   753  991  992 ar
   754  992  993 ar
   755  949  973 1
   756 1007 1026 1
   757 1007 1025 1
   758 1007 1009 1
   759 1008 1010 1
   760 1008 1009 1
   761 1010 1012 1
   762 1010 1011 1
   763 1011 1016 1
   764 1012 1013 1
   765 1012 1014 1
   766 1014 1015 1
   767 1014 1016 1
   768 1016 1017 1
   769 1017 1024 1
   770 1017 1018 am
   771 1018 1020 am
   772 1018 1019 2
   773 1020 1021 am
   774 1021 1022 2
   775 1021 1023 1
   776 1023 1024 2
   777  979 1007 1
   778 1037 1039 1
   779 1037 1056 1
   780 1037 1055 1
   781 1038 1039 1
   782 1038 1040 1
   783 1040 1042 1
   784 1040 1041 1
   785 1041 1046 1
   786 1042 1044 1
   787 1042 1043 1
   788 1044 1045 1
   789 1044 1046 1
   790 1046 1047 1
   791 1047 1048 am
   792 1047 1054 1
   793 1048 1049 2
   794 1048 1050 1
   795 1050 1051 2
   796 1051 1053 2
   797 1051 1052 2
   798 1053 1054 2
   799 1013 1037 1
   800 1068 1089 1
   801 1068 1090 1
   802 1068 1070 1
   803 1069 1070 1
   804 1069 1071 1
   805 1071 1073 1
   806 1071 1072 1
   807 1072 1077 1
   808 1073 1075 1
   809 1073 1074 1
   810 1075 1077 1
   811 1075 1076 1
   812 1077 1088 1
   813 1078 1079 1
   814 1078 1084 am
   815 1079 1080 2
   816 1079 1081 2
   817 1081 1082 1
   818 1082 1088 ar
   819 1082 1083 ar
   820 1083 1086 ar
   821 1083 1084 1
   822 1084 1085 2
   823 1086 1087 ar
   824 1087 1088 ar
   825 1043 1068 1
   826 1102 1121 1
   827 1102 1120 1
   828 1102 1104 1
   829 1103 1105 1
   830 1103 1104 1
   831 1105 1107 1
   832 1105 1106 1
   833 1106 1111 1
   834 1107 1108 1
   835 1107 1109 1
   836 1109 1110 1
   837 1109 1111 1
   838 1111 1112 1
   839 1112 1119 1
   840 1112 1113 am
   841 1113 1115 am
   842 1113 1114 2
   843 1115 1116 am
   844 1116 1117 2
   845 1116 1118 1
   846 1118 1119 2
   847 1074 1102 1
   848 1132 1153 1
   849 1132 1152 1
   850 1132 1134 1
   851 1133 1135 1
   852 1133 1134 1
   853 1135 1136 1
   854 1135 1137 1
   855 1136 1141 1
   856 1137 1139 1
   857 1137 1138 1
   858 1139 1141 1
   859 1139 1140 1
   860 1141 1151 1
   861 1142 1147 ar
   862 1142 1143 ar
   863 1143 1144 ar
   864 1144 1145 ar
   865 1145 1146 ar
   866 1145 1151 ar
   867 1146 1147 ar
   868 1146 1149 ar
   869 1147 1148 1
   870 1149 1150 ar
   871 1150 1151 ar
   872 1108 1132 1
   873 1166 1167 1
   874 1166 1168 1
   875 1168 1170 1
   876 1168 1169 1
   877 1169 1174 1
   878 1170 1172 1
   879 1170 1171 1
   880 1172 1173 1
   881 1172 1174 1
   882 1174 1175 1
   883 1175 1182 1
   884 1175 1176 am
   885 1176 1177 2
   886 1176 1178 1
   887 1178 1179 2
   888 1179 1181 2
   889 1179 1180 2
   890 1181 1182 2
   891 1165 1167 1
   892 1165 1183 1
   893 1165 1184 1
   894 1138 1165 1
   895   21    1 1
   896   22    1 1
   897   23    3 1
   898   24    5 1
   899   25    7 1
   900   26    9 1
   901   27   10 1
   902   28   19 1
   903   53   34 1
   904   54   34 1
   905   55   36 1
   906   56   38 1
   907   57   40 1
   908   58   42 1
   909   59   46 1
   910   60   49 1
   911   61   50 1
   912   85   64 1
   913   86   64 1
   914   87   66 1
   915   88   68 1
   916   89   70 1
   917   90   72 1
   918   91   74 1
   919   92   81 1
   920  116   97 1
   921  117   97 1
   922  118   99 1
   923  119  101 1
   924  120  103 1
   925  121  105 1
   926  122  112 1
   927  123  113 1
   928  150  128 1
   929  151  128 1
   930  152  130 1
   931  153  132 1
   932  154  134 1
   933  155  136 1
   934  156  137 1
   935  157  146 1
   936  183  162 1
   937  184  162 1
   938  185  164 1
   939  186  166 1
   940  187  168 1
   941  188  170 1
   942  189  172 1
   943  190  179 1
   944  216  195 1
   945  217  195 1
   946  218  197 1
   947  219  199 1
   948  220  201 1
   949  221  203 1
   950  222  205 1
   951  223  212 1
   952  250  228 1
   953  251  228 1
   954  252  230 1
   955  253  232 1
   956  254  234 1
   957  255  236 1
   958  256  237 1
   959  257  246 1
   960  284  262 1
   961  285  262 1
   962  286  264 1
   963  287  266 1
   964  288  268 1
   965  289  270 1
   966  290  271 1
   967  291  280 1
   968  317  296 1
   969  318  296 1
   970  319  298 1
   971  320  300 1
   972  321  302 1
   973  322  304 1
   974  323  306 1
   975  324  313 1
   976  350  329 1
   977  351  329 1
   978  352  331 1
   979  353  333 1
   980  354  335 1
   981  355  337 1
   982  356  339 1
   983  357  346 1
   984  384  362 1
   985  385  362 1
   986  386  364 1
   987  387  366 1
   988  388  368 1
   989  389  370 1
   990  390  371 1
   991  391  380 1
   992  418  396 1
   993  419  396 1
   994  420  398 1
   995  421  400 1
   996  422  402 1
   997  423  404 1
   998  424  405 1
   999  425  414 1
  1000  449  430 1
  1001  450  430 1
  1002  451  432 1
  1003  452  434 1
  1004  453  436 1
  1005  454  438 1
  1006  455  442 1
  1007  456  445 1
  1008  457  446 1
  1009  479  460 1
  1010  480  460 1
  1011  481  462 1
  1012  482  464 1
  1013  483  466 1
  1014  484  468 1
  1015  485  472 1
  1016  486  475 1
  1017  487  476 1
  1018  509  490 1
  1019  510  490 1
  1020  511  492 1
  1021  512  494 1
  1022  513  496 1
  1023  514  498 1
  1024  515  502 1
  1025  516  505 1
  1026  517  506 1
  1027  542  520 1
  1028  543  520 1
  1029  544  522 1
  1030  545  524 1
  1031  546  526 1
  1032  547  528 1
  1033  548  529 1
  1034  549  538 1
  1035  576  554 1
  1036  577  554 1
  1037  578  556 1
  1038  579  558 1
  1039  580  560 1
  1040  581  562 1
  1041  582  563 1
  1042  583  572 1
  1043  607  588 1
  1044  608  588 1
  1045  609  590 1
  1046  610  592 1
  1047  611  594 1
  1048  612  596 1
  1049  613  600 1
  1050  614  603 1
  1051  615  604 1
  1052  639  618 1
  1053  640  618 1
  1054  641  620 1
  1055  642  622 1
  1056  643  624 1
  1057  644  626 1
  1058  645  628 1
  1059  646  635 1
  1060  670  651 1
  1061  671  651 1
  1062  672  653 1
  1063  673  655 1
  1064  674  657 1
  1065  675  659 1
  1066  676  663 1
  1067  677  666 1
  1068  678  667 1
  1069  703  681 1
  1070  704  681 1
  1071  705  683 1
  1072  706  685 1
  1073  707  687 1
  1074  708  689 1
  1075  709  690 1
  1076  710  699 1
  1077  737  715 1
  1078  738  715 1
  1079  739  717 1
  1080  740  719 1
  1081  741  721 1
  1082  742  723 1
  1083  743  724 1
  1084  744  733 1
  1085  771  749 1
  1086  772  749 1
  1087  773  751 1
  1088  774  753 1
  1089  775  755 1
  1090  776  757 1
  1091  777  758 1
  1092  778  767 1
  1093  805  783 1
  1094  806  783 1
  1095  807  785 1
  1096  808  787 1
  1097  809  789 1
  1098  810  791 1
  1099  811  792 1
  1100  812  801 1
  1101  836  817 1
  1102  837  817 1
  1103  838  819 1
  1104  839  821 1
  1105  840  823 1
  1106  841  825 1
  1107  842  829 1
  1108  843  832 1
  1109  844  833 1
  1110  868  847 1
  1111  869  847 1
  1112  870  849 1
  1113  871  851 1
  1114  872  853 1
  1115  873  855 1
  1116  874  857 1
  1117  875  864 1
  1118  902  880 1
  1119  903  880 1
  1120  904  882 1
  1121  905  884 1
  1122  906  886 1
  1123  907  888 1
  1124  908  889 1
  1125  909  898 1
  1126  933  914 1
  1127  934  914 1
  1128  935  916 1
  1129  936  918 1
  1130  937  920 1
  1131  938  922 1
  1132  939  926 1
  1133  940  929 1
  1134  941  930 1
  1135  963  944 1
  1136  964  944 1
  1137  965  946 1
  1138  966  948 1
  1139  967  950 1
  1140  968  952 1
  1141  969  956 1
  1142  970  959 1
  1143  971  960 1
  1144  996  974 1
  1145  997  974 1
  1146  998  976 1
  1147  999  978 1
  1148 1000  980 1
  1149 1001  982 1
  1150 1002  983 1
  1151 1003  992 1
  1152 1027 1008 1
  1153 1028 1008 1
  1154 1029 1010 1
  1155 1030 1012 1
  1156 1031 1014 1
  1157 1032 1016 1
  1158 1033 1020 1
  1159 1034 1023 1
  1160 1035 1024 1
  1161 1057 1038 1
  1162 1058 1038 1
  1163 1059 1040 1
  1164 1060 1042 1
  1165 1061 1044 1
  1166 1062 1046 1
  1167 1063 1053 1
  1168 1064 1054 1
  1169 1091 1069 1
  1170 1092 1069 1
  1171 1093 1071 1
  1172 1094 1073 1
  1173 1095 1075 1
  1174 1096 1077 1
  1175 1097 1078 1
  1176 1098 1087 1
  1177 1122 1103 1
  1178 1123 1103 1
  1179 1124 1105 1
  1180 1125 1107 1
  1181 1126 1109 1
  1182 1127 1111 1
  1183 1128 1115 1
  1184 1129 1118 1
  1185 1130 1119 1
  1186 1154 1133 1
  1187 1155 1133 1
  1188 1156 1135 1
  1189 1157 1137 1
  1190 1158 1139 1
  1191 1159 1141 1
  1192 1160 1143 1
  1193 1161 1150 1
  1194 1185 1166 1
  1195 1186 1166 1
  1196 1187 1168 1
  1197 1188 1170 1
  1198 1189 1172 1
  1199 1190 1174 1
  1200 1191 1181 1
  1201 1192 1182 1
  1202   29   12 1
  1203   30   12 1
  1204  124  111 1
  1205  125  111 1
  1206  158  139 1
  1207  159  139 1
  1208  258  239 1
  1209  259  239 1
  1210  292  273 1
  1211  293  273 1
  1212  392  373 1
  1213  393  373 1
  1214  426  407 1
  1215  427  407 1
  1216  550  531 1
  1217  551  531 1
  1218  584  565 1
  1219  585  565 1
  1220  711  692 1
  1221  712  692 1
  1222  745  726 1
  1223  746  726 1
  1224  779  760 1
  1225  780  760 1
  1226  813  794 1
  1227  814  794 1
  1228  910  891 1
  1229  911  891 1
  1230 1004  985 1
  1231 1005  985 1
  1232 1065 1052 1
  1233 1066 1052 1
  1234 1099 1080 1
  1235 1100 1080 1
  1236 1193 1180 1
  1237 1194 1180 1
  1238  845  824 1
  1239  942  921 1
  1240  586  561 1
  1241  518  497 1
  1242  876  854 1
  1243  294  269 1
  1244  912  887 1
  1245  747  722 1
  1246   93   71 1
  1247 1101 1076 1
  1248  972  951 1
  1249 1006  981 1
  1250 1162 1140 1
  1251  358  344 1
  1252  359  344 1
  1253  224  210 1
  1254  225  210 1
  1255  877  862 1
  1256  878  862 1
  1257  325  311 1
  1258  326  311 1
  1259  191  177 1
  1260  192  177 1
  1261  647  633 1
  1262  648  633 1
  1263 1163 1148 1
  1264 1164 1148 1
  1265   94   79 1
  1266   95   79 1
  1267  616  595 1
  1268  458  437 1
  1269  552  527 1
  1270  713  688 1
  1271  260  235 1
  1272  428  403 1
  1273  126  104 1
  1274  781  756 1
  1275   31    8 1
  1276  160  135 1
  1277  649  625 1
  1278 1067 1045 1
  1279  327  303 1
  1280  488  467 1
  1281  815  790 1
  1282  193  169 1
  1283  360  336 1
  1284  679  658 1
  1285  226  202 1
  1286 1131 1110 1
  1287  394  369 1
  1288   62   41 1
  1289 1195 1171 1
  1290 1196 1173 1
  1291 1036 1015 1
  1292   32    2 1
@<TRIPOS>SUBSTRUCTURE
     1   G1        3 RESIDUE           4 A       G     1 ROOT
     2   U2       36 RESIDUE           4 A       U     2
     3   A3       66 RESIDUE           4 A       A     2
     4   C4       99 RESIDUE           4 A       C     2
     5   G5      130 RESIDUE           4 A       G     2
     6   A6      164 RESIDUE           4 A       A     2
     7   A7      197 RESIDUE           4 A       A     2
     8   G8      230 RESIDUE           4 A       G     2
     9   G9      264 RESIDUE           4 A       G     2
    10   A10     298 RESIDUE           4 A       A     2
    11   A11     331 RESIDUE           4 A       A     2
    12   G12     364 RESIDUE           4 A       G     2
    13   G13     398 RESIDUE           4 A       G     2
    14   U14     432 RESIDUE           4 A       U     2
    15   U15     462 RESIDUE           4 A       U     2
    16   U16     492 RESIDUE           4 A       U     2
    17   G17     522 RESIDUE           4 A       G     2
    18   G18     556 RESIDUE           4 A       G     2
    19   U19     590 RESIDUE           4 A       U     2
    20   A20     620 RESIDUE           4 A       A     2
    21   U21     653 RESIDUE           4 A       U     2
    22   G22     683 RESIDUE           4 A       G     2
    23   G23     717 RESIDUE           4 A       G     2
    24   G24     751 RESIDUE           4 A       G     2
    25   G25     785 RESIDUE           4 A       G     2
    26   U26     819 RESIDUE           4 A       U     2
    27   A27     849 RESIDUE           4 A       A     2
    28   G28     882 RESIDUE           4 A       G     2
    29   U29     916 RESIDUE           4 A       U     2
    30   U30     946 RESIDUE           4 A       U     2
    31   G31     976 RESIDUE           4 A       G     2
    32   U32    1010 RESIDUE           4 A       U     2
    33   C33    1040 RESIDUE           4 A       C     2
    34   G34    1071 RESIDUE           4 A       G     2
    35   U35    1105 RESIDUE           4 A       U     2
    36   A36    1135 RESIDUE           4 A       A     2
    37   C37    1168 RESIDUE           4 A       C     1
