@<TRIPOS>MOLECULE
23_Ding_4.pdb
1196 1292 37 0 0
NUCLEIC_ACID
AMBER ff14SB


@<TRIPOS>ATOM
      1 C5'       -21.8490  -13.1620  -35.8250 C.3       1   G1        0.0558
      2 O5'       -21.1710  -14.1040  -36.6860 O.3       1   G1       -0.6223
      3 C4'       -22.9980  -13.8820  -35.1130 C.3       1   G1        0.1065
      4 O4'       -23.8810  -14.4440  -36.1020 O.3       1   G1       -0.3548
      5 C3'       -22.4290  -14.9280  -34.1530 C.3       1   G1        0.2022
      6 O3'       -22.4030  -14.4590  -32.8200 O.3       1   G1       -0.5246
      7 C2'       -23.4660  -16.0230  -34.3990 C.3       1   G1        0.0670
      8 O2'       -24.2580  -16.2100  -33.2540 O.3       1   G1       -0.6139
      9 C1'       -24.2280  -15.7900  -35.6910 C.3       1   G1        0.0191
     10 N1        -23.9500  -20.7030  -37.2080 N.am      1   G1       -0.4787
     11 C2        -24.5480  -20.1420  -36.0850 C.2       1   G1        0.7657
     12 N2        -25.0330  -21.0110  -35.1620 N.pl3     1   G1       -0.9672
     13 N3        -24.4220  -18.8330  -35.7460 N.2       1   G1       -0.6323
     14 C4        -23.9730  -18.0780  -36.7750 C.ar      1   G1        0.1222
     15 C5        -23.3870  -18.5550  -37.9420 C.ar      1   G1        0.1744
     16 C6        -23.4940  -19.9280  -38.2860 C.2       1   G1        0.4770
     17 O6        -23.0110  -20.4730  -39.2940 O.2       1   G1       -0.5597
     18 N7        -22.9100  -17.4730  -38.6730 N.ar      1   G1       -0.5709
     19 C8        -23.0020  -16.4530  -37.8540 C.ar      1   G1        0.1374
     20 N9        -23.7210  -16.7370  -36.7220 N.ar      1   G1        0.0492
     21 H5'       -22.2455  -12.3404  -36.4216 H         1   G1        0.0679
     22 H5''      -21.1485  -12.7724  -35.0864 H         1   G1        0.0679
     23 H4'       -23.5557  -13.1483  -34.5311 H         1   G1        0.1174
     24 H3'       -21.4380  -15.2512  -34.4717 H         1   G1        0.0615
     25 H2'       -22.9062  -16.9480  -34.5373 H         1   G1        0.0972
     26 H1'       -25.3028  -15.8976  -35.5449 H         1   G1        0.2006
     27 H1        -23.8395  -21.7061  -37.2497 H         1   G1        0.3424
     28 H8        -22.5572  -15.4888  -38.0510 H         1   G1        0.1640
     29 H21       -25.3870  -20.6694  -34.2799 H         1   G1        0.4364
     30 H22       -25.0399  -22.0018  -35.3578 H         1   G1        0.4364
     31 HO2'      -23.9667  -16.9971  -32.7879 H         1   G1        0.4186
     32 HO5'      -20.4254  -13.7495  -37.1759 H         1   G1        0.4295
     33 P         -21.2880  -14.9650  -31.7800 P.3       2   U2        1.1662
     34 C5'       -22.8420  -16.8610  -30.7830 C.3       2   U2        0.0558
     35 O5'       -21.6300  -16.4790  -31.4920 O.3       2   U2       -0.4989
     36 C4'       -23.0320  -18.3410  -30.8070 C.3       2   U2        0.1065
     37 O4'       -23.4380  -18.8200  -32.0620 O.3       2   U2       -0.3548
     38 C3'       -21.8250  -19.1700  -30.4460 C.3       2   U2        0.2022
     39 O3'       -21.5490  -19.2180  -29.0500 O.3       2   U2       -0.5246
     40 C2'       -22.1710  -20.5370  -31.0100 C.3       2   U2        0.0670
     41 O2'       -22.8690  -21.3760  -30.1070 O.3       2   U2       -0.6139
     42 C1'       -23.0050  -20.1930  -32.2650 C.3       2   U2        0.0674
     43 N1        -22.1130  -20.2180  -33.4600 N.am      2   U2        0.0418
     44 C2        -21.7700  -21.4570  -33.9940 C.2       2   U2        0.4687
     45 O2        -22.3210  -22.5070  -33.6120 O.2       2   U2       -0.5477
     46 N3        -20.9940  -21.4070  -35.1360 N.am      2   U2       -0.3549
     47 C4        -20.6340  -20.2650  -35.8810 C.2       2   U2        0.5952
     48 O4        -19.8190  -20.3560  -36.8230 O.2       2   U2       -0.5761
     49 C5        -20.9310  -19.0300  -35.1650 C.2       2   U2       -0.3635
     50 C6        -21.6550  -19.0660  -34.0060 C.2       2   U2       -0.1126
     51 OP1       -21.4130  -14.1620  -30.5520 O.co2     2   U2       -0.7760
     52 OP2       -19.9760  -14.9230  -32.5030 O.co2     2   U2       -0.7760
     53 H5'       -22.7691  -16.5279  -29.7477 H         2   U2        0.0679
     54 H5''      -23.6998  -16.3815  -31.2546 H         2   U2        0.0679
     55 H4'       -23.8202  -18.5818  -30.0937 H         2   U2        0.1174
     56 H3'       -20.9529  -18.7780  -30.9693 H         2   U2        0.0615
     57 H2'       -21.2527  -21.0357  -31.3200 H         2   U2        0.0972
     58 H1'       -23.8524  -20.8685  -32.3819 H         2   U2        0.1824
     59 H3        -20.6439  -22.2909  -35.4768 H         2   U2        0.3154
     60 H5        -20.5783  -18.0850  -35.5511 H         2   U2        0.1811
     61 H6        -21.8714  -18.1349  -33.5035 H         2   U2        0.2188
     62 HO2'      -22.3130  -21.5613  -29.3467 H         2   U2        0.4186
     63 P         -19.9790  -19.2240  -28.5780 P.3       3   A3        1.1662
     64 C5'       -18.1690  -20.9470  -29.4140 C.3       3   A3        0.0558
     65 O5'       -19.4720  -20.6870  -28.9610 O.3       3   A3       -0.4989
     66 C4'       -17.9630  -22.4240  -29.6940 C.3       3   A3        0.1065
     67 O4'       -18.8910  -22.8510  -30.7010 O.3       3   A3       -0.3548
     68 C3'       -16.5600  -22.7220  -30.2320 C.3       3   A3        0.2022
     69 O3'       -15.6150  -22.9450  -29.1960 O.3       3   A3       -0.5246
     70 C2'       -16.8330  -24.0290  -31.0080 C.3       3   A3        0.0670
     71 O2'       -16.8950  -25.1690  -30.1720 O.3       3   A3       -0.6139
     72 C1'       -18.1900  -23.6720  -31.6500 C.3       3   A3        0.0394
     73 N1        -17.2480  -24.3430  -36.6460 N.ar      3   A3       -0.7615
     74 C2        -17.3090  -25.1850  -35.6200 C.ar      3   A3        0.5875
     75 N3        -17.4820  -24.9280  -34.3140 N.ar      3   A3       -0.6997
     76 C4        -17.6270  -23.5910  -34.0890 C.ar      3   A3        0.3053
     77 C5        -17.6680  -22.6100  -35.0830 C.ar      3   A3        0.0515
     78 C6        -17.4660  -23.0300  -36.4120 C.ar      3   A3        0.7009
     79 N6        -17.5460  -22.2030  -37.4880 N.pl3     3   A3       -0.9019
     80 N7        -17.6260  -21.3710  -34.4360 N.ar      3   A3       -0.6073
     81 C8        -18.0330  -21.6450  -33.2480 C.ar      3   A3        0.2006
     82 N9        -17.9340  -22.9470  -32.9150 N.ar      3   A3       -0.0251
     83 OP1       -19.9400  -19.0950  -27.1020 O.co2     3   A3       -0.7760
     84 OP2       -19.2860  -18.2130  -29.4010 O.co2     3   A3       -0.7760
     85 H5'       -17.4586  -20.6286  -28.6511 H         3   A3        0.0679
     86 H5''      -17.9890  -20.3814  -30.3282 H         3   A3        0.0679
     87 H4'       -18.1305  -22.9940  -28.7802 H         3   A3        0.1174
     88 H3'       -16.2237  -21.9322  -30.9037 H         3   A3        0.0615
     89 H2'       -16.0779  -24.1712  -31.7811 H         3   A3        0.0972
     90 H1'       -18.7588  -24.5803  -31.8492 H         3   A3        0.2007
     91 H2        -17.2040  -26.2294  -35.8741 H         3   A3        0.0473
     92 H8        -18.4212  -20.8956  -32.5741 H         3   A3        0.1553
     93 HO2'      -16.2274  -25.8028  -30.4444 H         3   A3        0.4186
     94 H61       -17.7181  -22.4426  -38.4539 H         3   A3        0.4115
     95 H62       -17.4163  -21.2199  -37.2963 H         3   A3        0.4115
     96 P         -14.0380  -22.6620  -29.4450 P.3       4   C4        1.1662
     97 C5'       -13.8390  -25.2050  -29.8410 C.3       4   C4        0.0558
     98 O5'       -13.6290  -23.8990  -30.3490 O.3       4   C4       -0.4989
     99 C4'       -13.5290  -26.2820  -30.8660 C.3       4   C4        0.1065
    100 O4'       -14.4710  -26.3110  -31.9610 O.3       4   C4       -0.3548
    101 C3'       -12.1820  -26.1160  -31.5390 C.3       4   C4        0.2022
    102 O3'       -11.1490  -26.7470  -30.7510 O.3       4   C4       -0.5246
    103 C2'       -12.3640  -26.8670  -32.8320 C.3       4   C4        0.0670
    104 O2'       -12.2500  -28.2740  -32.5840 O.3       4   C4       -0.6139
    105 C1'       -13.7610  -26.4420  -33.1920 C.3       4   C4        0.0066
    106 N1        -13.7570  -25.1310  -33.9260 N.am      4   C4       -0.0484
    107 C2        -13.3650  -25.1620  -35.2740 C.2       4   C4        0.7538
    108 O2        -13.1200  -26.2470  -35.8100 O.2       4   C4       -0.6252
    109 N3        -13.4770  -23.9850  -35.9870 N.2       4   C4       -0.7584
    110 C4        -13.8540  -22.8460  -35.3820 C.2       4   C4        0.8185
    111 N4        -13.8780  -21.7060  -36.0860 N.pl3     4   C4       -0.9530
    112 C5        -14.3250  -22.8270  -34.0190 C.2       4   C4       -0.5215
    113 C6        -14.1810  -23.9810  -33.3140 C.2       4   C4        0.0053
    114 OP1       -13.3930  -22.7270  -28.1300 O.co2     4   C4       -0.7760
    115 OP2       -13.8930  -21.4340  -30.2450 O.co2     4   C4       -0.7760
    116 H5'       -13.1945  -25.3511  -28.9742 H         4   C4        0.0679
    117 H5''      -14.8791  -25.3011  -29.5295 H         4   C4        0.0679
    118 H4'       -13.5491  -27.2507  -30.3667 H         4   C4        0.1174
    119 H3'       -11.9562  -25.0651  -31.7196 H         4   C4        0.0615
    120 H2'       -11.6457  -26.5391  -33.5834 H         4   C4        0.0972
    121 H1'       -14.2314  -27.2078  -33.8087 H         4   C4        0.2029
    122 H5        -14.7680  -21.9443  -33.5819 H         4   C4        0.1928
    123 H6        -14.4039  -23.9910  -32.2573 H         4   C4        0.1958
    124 H41       -13.5835  -21.7025  -37.0521 H         4   C4        0.4234
    125 H42       -14.1906  -20.8501  -35.6504 H         4   C4        0.4234
    126 HO2'      -12.3657  -28.7548  -33.4068 H         4   C4        0.4186
    127 P          -9.6650  -26.1110  -30.8810 P.3       5   G5        1.1662
    128 C5'        -8.6180  -27.6900  -32.6800 C.3       5   G5        0.0558
    129 O5'        -9.2860  -26.4680  -32.3880 O.3       5   G5       -0.4989
    130 C4'        -8.0390  -27.7080  -34.0650 C.3       5   G5        0.1065
    131 O4'        -9.0240  -27.4360  -35.0930 O.3       5   G5       -0.3548
    132 C3'        -6.8770  -26.7720  -34.2510 C.3       5   G5        0.2022
    133 O3'        -5.6250  -27.3540  -33.8490 O.3       5   G5       -0.5246
    134 C2'        -6.8990  -26.6060  -35.7630 C.3       5   G5        0.0670
    135 O2'        -6.0860  -27.5810  -36.4450 O.3       5   G5       -0.6139
    136 C1'        -8.3890  -26.7410  -36.1670 C.3       5   G5        0.0191
    137 N1         -9.4030  -23.0880  -39.5830 N.am      5   G5       -0.4787
    138 C2         -8.8090  -24.3360  -39.7540 C.2       5   G5        0.7657
    139 N2         -8.3500  -24.6090  -40.9820 N.pl3     5   G5       -0.9672
    140 N3         -8.5240  -25.1530  -38.7450 N.2       5   G5       -0.6323
    141 C4         -9.0540  -24.7650  -37.5530 C.ar      5   G5        0.1222
    142 C5         -9.8070  -23.6120  -37.3340 C.ar      5   G5        0.1744
    143 C6         -9.9010  -22.6240  -38.3600 C.2       5   G5        0.4770
    144 O6        -10.3840  -21.4710  -38.2780 O.2       5   G5       -0.5597
    145 N7        -10.3090  -23.6210  -36.0230 N.ar      5   G5       -0.5709
    146 C8         -9.6730  -24.6310  -35.4520 C.ar      5   G5        0.1374
    147 N9         -8.9890  -25.3990  -36.3360 N.ar      5   G5        0.0492
    148 OP1        -8.8240  -26.8740  -29.9220 O.co2     5   G5       -0.7760
    149 OP2        -9.8120  -24.6440  -30.7390 O.co2     5   G5       -0.7760
    150 H5'        -9.3309  -28.5094  -32.5879 H         5   G5        0.0679
    151 H5''       -7.8146  -27.8362  -31.9580 H         5   G5        0.0679
    152 H4'        -7.6660  -28.7170  -34.2408 H         5   G5        0.1174
    153 H3'        -7.0508  -25.8214  -33.7467 H         5   G5        0.0615
    154 H2'        -6.5482  -25.6061  -36.0183 H         5   G5        0.0972
    155 H1'        -8.4785  -27.3127  -37.0907 H         5   G5        0.2006
    156 H1         -9.4788  -22.4828  -40.3880 H         5   G5        0.3424
    157 H8         -9.6962  -24.8242  -34.3897 H         5   G5        0.1640
    158 H21        -8.5054  -23.9565  -41.7371 H         5   G5        0.4364
    159 H22        -7.8478  -25.4684  -41.1533 H         5   G5        0.4364
    160 HO2'       -5.1728  -27.2853  -36.4563 H         5   G5        0.4186
    161 P          -4.4410  -26.4010  -33.2640 P.3       6   A6        1.1662
    162 C5'        -2.9900  -26.4510  -35.4010 C.3       6   A6        0.0558
    163 O5'        -3.9270  -25.7150  -34.6520 O.3       6   A6       -0.4989
    164 C4'        -2.5340  -25.6020  -36.6200 C.3       6   A6        0.1065
    165 O4'        -3.6260  -25.3930  -37.4910 O.3       6   A6       -0.3548
    166 C3'        -2.0800  -24.2240  -36.1950 C.3       6   A6        0.2022
    167 O3'        -0.7140  -24.2190  -35.7720 O.3       6   A6       -0.5246
    168 C2'        -2.2790  -23.4920  -37.5200 C.3       6   A6        0.0670
    169 O2'        -1.1050  -23.4550  -38.2990 O.3       6   A6       -0.6139
    170 C1'        -3.4620  -24.1810  -38.2500 C.3       6   A6        0.0394
    171 N1         -6.1420  -20.4300  -40.4570 N.ar      6   A6       -0.7615
    172 C2         -5.1990  -21.2460  -40.9430 C.ar      6   A6        0.5875
    173 N3         -4.6310  -22.3140  -40.3620 N.ar      6   A6       -0.6997
    174 C4         -5.0340  -22.4010  -39.0600 C.ar      6   A6        0.3053
    175 C5         -6.0260  -21.6440  -38.4520 C.ar      6   A6        0.0515
    176 C6         -6.6440  -20.6250  -39.2410 C.ar      6   A6        0.7009
    177 N6         -7.6900  -19.9040  -38.7990 N.pl3     6   A6       -0.9019
    178 N7         -6.3910  -22.2030  -37.2360 N.ar      6   A6       -0.6073
    179 C8         -5.4490  -23.1130  -37.0210 C.ar      6   A6        0.2006
    180 N9         -4.7060  -23.3650  -38.1460 N.ar      6   A6       -0.0251
    181 OP1        -3.3410  -27.2170  -32.7660 O.co2     6   A6       -0.7760
    182 OP2        -5.0180  -25.3520  -32.4360 O.co2     6   A6       -0.7760
    183 H5'        -2.1277  -26.6860  -34.7770 H         6   A6        0.0679
    184 H5''       -3.4489  -27.3754  -35.7518 H         6   A6        0.0679
    185 H4'        -1.7289  -26.1124  -37.1486 H         6   A6        0.1174
    186 H3'        -2.7315  -23.8180  -35.4212 H         6   A6        0.0615
    187 H2'        -2.5703  -22.4652  -37.2986 H         6   A6        0.0972
    188 H1'        -3.2148  -24.3953  -39.2897 H         6   A6        0.2007
    189 H2         -4.8476  -21.0134  -41.9374 H         6   A6        0.0473
    190 H8         -5.2864  -23.5988  -36.0702 H         6   A6        0.1553
    191 HO2'       -0.5246  -22.7641  -37.9712 H         6   A6        0.4186
    192 H61        -7.8250  -18.9635  -39.1414 H         6   A6        0.4115
    193 H62        -8.3351  -20.2999  -38.1302 H         6   A6        0.4115
    194 P          -0.1690  -23.1830  -34.6980 P.3       7   A7        1.1662
    195 C5'         0.9680  -21.7110  -36.5210 C.3       7   A7        0.0558
    196 O5'        -0.0620  -21.8340  -35.5450 O.3       7   A7       -0.4989
    197 C4'         0.9200  -20.3320  -37.1590 C.3       7   A7        0.1065
    198 O4'        -0.2520  -20.1440  -37.9340 O.3       7   A7       -0.3548
    199 C3'         0.8390  -19.2230  -36.1010 C.3       7   A7        0.2022
    200 O3'         2.0880  -18.9670  -35.4640 O.3       7   A7       -0.5246
    201 C2'         0.3940  -18.0640  -36.9940 C.3       7   A7        0.0670
    202 O2'         1.4870  -17.5910  -37.7830 O.3       7   A7       -0.6139
    203 C1'        -0.6260  -18.7560  -37.9070 C.3       7   A7        0.0394
    204 N1         -5.0690  -16.3570  -38.5760 N.ar      7   A7       -0.7615
    205 C2         -3.8400  -16.2400  -39.1230 C.ar      7   A7        0.5875
    206 N3         -2.6970  -16.7470  -38.7360 N.ar      7   A7       -0.6997
    207 C4         -2.8800  -17.6600  -37.7280 C.ar      7   A7        0.3053
    208 C5         -4.0970  -17.9340  -37.0970 C.ar      7   A7        0.0515
    209 C6         -5.2550  -17.3410  -37.6500 C.ar      7   A7        0.7009
    210 N6         -6.4830  -17.3970  -37.0790 N.pl3     7   A7       -0.9019
    211 N7         -3.8590  -18.9050  -36.1510 N.ar      7   A7       -0.6073
    212 C8         -2.6710  -19.3830  -36.4240 C.ar      7   A7        0.2006
    213 N9         -2.0130  -18.6560  -37.3660 N.ar      7   A7       -0.0251
    214 OP1         1.1810  -23.5400  -34.2580 O.co2     7   A7       -0.7760
    215 OP2        -1.2790  -22.9630  -33.7080 O.co2     7   A7       -0.7760
    216 H5'         0.8275  -22.4696  -37.2910 H         7   A7        0.0679
    217 H5''        1.9374  -21.8552  -36.0439 H         7   A7        0.0679
    218 H4'         1.8018  -20.1833  -37.7822 H         7   A7        0.1174
    219 H3'         0.0719  -19.4537  -35.3618 H         7   A7        0.0615
    220 H2'        -0.0625  -17.2612  -36.4151 H         7   A7        0.0972
    221 H1'        -0.5813  -18.3337  -38.9109 H         7   A7        0.2007
    222 H2         -3.7929  -15.6355  -40.0167 H         7   A7        0.0473
    223 H8         -2.2576  -20.2616  -35.9511 H         7   A7        0.1553
    224 H61        -7.2405  -16.8359  -37.4415 H         7   A7        0.4115
    225 H62        -6.6414  -18.0031  -36.2867 H         7   A7        0.4115
    226 HO2'        2.1280  -17.1570  -37.2152 H         7   A7        0.4186
    227 P           2.1990  -18.6750  -33.8700 P.3       8   G8        1.1662
    228 C5'         4.8140  -18.7630  -34.0390 C.3       8   G8        0.0558
    229 O5'         3.6600  -17.9700  -33.7910 O.3       8   G8       -0.4989
    230 C4'         6.0110  -17.8660  -34.3600 C.3       8   G8        0.1065
    231 O4'         6.3550  -17.0850  -33.2130 O.3       8   G8       -0.3548
    232 C3'         7.2450  -18.7500  -34.6460 C.3       8   G8        0.2022
    233 O3'         8.2920  -18.0310  -35.2650 O.3       8   G8       -0.5246
    234 C2'         7.6090  -19.0670  -33.1700 C.3       8   G8        0.0670
    235 O2'         8.9630  -19.5200  -33.1390 O.3       8   G8       -0.6139
    236 C1'         7.5230  -17.6610  -32.5630 C.3       8   G8        0.0191
    237 N1          9.7980  -18.2960  -28.0050 N.am      8   G8       -0.4787
    238 C2         10.2920  -18.5290  -29.2960 C.2       8   G8        0.7657
    239 N2         11.5880  -18.8960  -29.3740 N.pl3     8   G8       -0.9672
    240 N3          9.5130  -18.5190  -30.3840 N.2       8   G8       -0.6323
    241 C4          8.3040  -17.9060  -30.1740 C.ar      8   G8        0.1222
    242 C5          7.7970  -17.5630  -28.9700 C.ar      8   G8        0.1744
    243 C6          8.5380  -17.7730  -27.7470 C.2       8   G8        0.4770
    244 O6          8.1450  -17.5470  -26.5820 O.2       8   G8       -0.5597
    245 N7          6.4040  -17.3460  -29.0720 N.ar      8   G8       -0.5709
    246 C8          6.1730  -17.4200  -30.3690 C.ar      8   G8        0.1374
    247 N9          7.2980  -17.7460  -31.1100 N.ar      8   G8        0.0492
    248 OP1         2.2850  -20.0000  -33.1880 O.co2     8   G8       -0.7760
    249 OP2         1.1610  -17.7360  -33.4870 O.co2     8   G8       -0.7760
    250 H5'         4.6221  -19.4237  -34.8845 H         8   G8        0.0679
    251 H5''        5.0376  -19.3617  -33.1560 H         8   G8        0.0679
    252 H4'         5.7924  -17.2227  -35.2123 H         8   G8        0.1174
    253 H3'         6.9823  -19.6491  -35.2035 H         8   G8        0.0615
    254 H2'         6.9175  -19.7704  -32.7061 H         8   G8        0.0972
    255 H1'         8.4197  -17.0831  -32.7866 H         8   G8        0.2006
    256 H1         10.3913  -18.5210  -27.2192 H         8   G8        0.3424
    257 H8          5.2029  -17.2439  -30.8098 H         8   G8        0.1640
    258 H21        12.1514  -18.9429  -28.5370 H         8   G8        0.4364
    259 H22        11.9950  -19.1240  -30.2698 H         8   G8        0.4364
    260 HO2'        9.3778  -19.2345  -32.3217 H         8   G8        0.4186
    261 P           9.2710  -18.6460  -36.3660 P.3       9   G9        1.1662
    262 C5'        10.7720  -16.9010  -35.0780 C.3       9   G9        0.0558
    263 O5'        10.7360  -18.0450  -35.9520 O.3       9   G9       -0.4989
    264 C4'        12.1940  -16.4130  -34.9140 C.3       9   G9        0.1065
    265 O4'        12.2280  -15.3420  -33.9680 O.3       9   G9       -0.3548
    266 C3'        13.0830  -17.4070  -34.2210 C.3       9   G9        0.2022
    267 O3'        14.4580  -17.0970  -34.4290 O.3       9   G9       -0.5246
    268 C2'        12.7140  -17.2880  -32.7760 C.3       9   G9        0.0670
    269 O2'        13.7670  -17.7310  -31.9010 O.3       9   G9       -0.6139
    270 C1'        12.5230  -15.7950  -32.6520 C.3       9   G9        0.0191
    271 N1         11.8800  -14.8570  -27.6750 N.am      9   G9       -0.4787
    272 C2         12.9830  -15.3910  -28.3600 C.2       9   G9        0.7657
    273 N2         14.1070  -15.4120  -27.6380 N.pl3     9   G9       -0.9672
    274 N3         13.0080  -15.5790  -29.6770 N.2       9   G9       -0.6323
    275 C4         11.8290  -15.2440  -30.2990 C.ar      9   G9        0.1222
    276 C5         10.6680  -14.8960  -29.6700 C.ar      9   G9        0.1744
    277 C6         10.6450  -14.5990  -28.2650 C.2       9   G9        0.4770
    278 O6          9.6370  -14.3640  -27.5790 O.2       9   G9       -0.5597
    279 N7          9.6100  -14.9520  -30.6050 N.ar      9   G9       -0.5709
    280 C8         10.2060  -15.0510  -31.7610 C.ar      9   G9        0.1374
    281 N9         11.5490  -15.4090  -31.6470 N.ar      9   G9        0.0492
    282 OP1         8.9280  -18.0120  -37.6670 O.co2     9   G9       -0.7760
    283 OP2         9.2890  -20.0980  -36.2170 O.co2     9   G9       -0.7760
    284 H5'        10.3727  -17.1804  -34.1030 H         9   G9        0.0679
    285 H5''       10.1630  -16.1029  -35.5025 H         9   G9        0.0679
    286 H4'        12.6174  -16.1065  -35.8705 H         9   G9        0.1174
    287 H3'        12.8686  -18.4137  -34.5797 H         9   G9        0.0615
    288 H2'        11.7849  -17.8181  -32.5665 H         9   G9        0.0972
    289 H1'        13.4816  -15.3639  -32.3632 H         9   G9        0.2006
    290 H1         11.9888  -14.6468  -26.6931 H         9   G9        0.3424
    291 H8          9.7123  -14.8746  -32.7052 H         9   G9        0.1640
    292 H21        14.0867  -15.1634  -26.6593 H         9   G9        0.4364
    293 H22        14.9795  -15.6772  -28.0722 H         9   G9        0.4364
    294 HO2'       13.9920  -17.0270  -31.2883 H         9   G9        0.4186
    295 P          15.3610  -18.0720  -35.3560 P.3      10   A10       1.1662
    296 C5'        16.2280  -15.9850  -36.7240 C.3      10   A10       0.0558
    297 O5'        16.5370  -17.0520  -35.8170 O.3      10   A10      -0.4989
    298 C4'        17.1790  -14.8080  -36.4450 C.3      10   A10       0.1065
    299 O4'        16.5350  -13.9010  -35.5140 O.3      10   A10      -0.3548
    300 C3'        18.5120  -15.2420  -35.8920 C.3      10   A10       0.2022
    301 O3'        19.4820  -15.5200  -36.8860 O.3      10   A10      -0.5246
    302 C2'        18.8320  -14.0120  -35.0420 C.3      10   A10       0.0670
    303 O2'        19.7520  -13.1260  -35.6340 O.3      10   A10      -0.6139
    304 C1'        17.5220  -13.2360  -34.7330 C.3      10   A10       0.0394
    305 N1         18.7240  -11.8040  -29.9540 N.ar     10   A10      -0.7615
    306 C2         19.2330  -11.4520  -31.1520 C.ar     10   A10       0.5875
    307 N3         18.7440  -11.7650  -32.3700 N.ar     10   A10      -0.6997
    308 C4         17.8910  -12.8380  -32.2530 C.ar     10   A10       0.3053
    309 C5         17.3810  -13.3500  -31.0940 C.ar     10   A10       0.0515
    310 C6         17.8790  -12.8310  -29.8700 C.ar     10   A10       0.7009
    311 N6         17.4260  -13.2380  -28.6620 N.pl3    10   A10      -0.9019
    312 N7         16.2370  -14.1180  -31.3900 N.ar     10   A10      -0.6073
    313 C8         16.3840  -14.3710  -32.6870 C.ar     10   A10       0.2006
    314 N9         17.2050  -13.4320  -33.2890 N.ar     10   A10      -0.0251
    315 OP1        14.6090  -18.4010  -36.5870 O.co2    10   A10      -0.7760
    316 OP2        15.9910  -19.0790  -34.5170 O.co2    10   A10      -0.7760
    317 H5'        16.3595  -16.3270  -37.7506 H        10   A10       0.0679
    318 H5''       15.1968  -15.6652  -36.5745 H        10   A10       0.0679
    319 H4'        17.3514  -14.2757  -37.3804 H        10   A10       0.1174
    320 H3'        18.3806  -16.1124  -35.2491 H        10   A10       0.0615
    321 H2'        19.2529  -14.3546  -34.0967 H        10   A10       0.0972
    322 H1'        17.6032  -12.1804  -34.9924 H        10   A10       0.2007
    323 H2         20.1316  -10.8532  -31.1347 H        10   A10       0.0473
    324 H8         15.9235  -15.2002  -33.2035 H        10   A10       0.1553
    325 HO2'       20.6422  -13.4685  -35.5253 H        10   A10       0.4186
    326 H61        17.7703  -12.8007  -27.8192 H        10   A10       0.4115
    327 H62        16.7430  -13.9797  -28.6029 H        10   A10       0.4115
    328 P          20.2520  -16.9120  -36.9340 P.3      11   A11       1.1662
    329 C5'        21.0670  -18.4460  -34.9500 C.3      11   A11       0.0558
    330 O5'        20.6570  -17.1420  -35.3720 O.3      11   A11      -0.4989
    331 C4'        21.8980  -18.2790  -33.6730 C.3      11   A11       0.1065
    332 O4'        23.0080  -17.4150  -33.8790 O.3      11   A11      -0.3548
    333 C3'        21.0160  -17.8470  -32.5060 C.3      11   A11       0.2022
    334 O3'        20.8720  -18.9030  -31.5400 O.3      11   A11      -0.5246
    335 C2'        21.9060  -16.7550  -31.9330 C.3      11   A11       0.0670
    336 O2'        22.3070  -16.9860  -30.5860 O.3      11   A11      -0.6139
    337 C1'        23.0850  -16.4440  -32.8160 C.3      11   A11       0.0394
    338 N1         23.8560  -11.4150  -31.9220 N.ar     11   A11      -0.7615
    339 C2         24.0360  -12.5070  -31.1570 C.ar     11   A11       0.5875
    340 N3         23.7400  -13.7760  -31.3990 N.ar     11   A11      -0.6997
    341 C4         23.2610  -13.8980  -32.6590 C.ar     11   A11       0.3053
    342 C5         22.9590  -12.8740  -33.5540 C.ar     11   A11       0.0515
    343 C6         23.2130  -11.5500  -33.0820 C.ar     11   A11       0.7009
    344 N6         22.8670  -10.4600  -33.7940 N.pl3    11   A11      -0.9019
    345 N7         22.8800  -13.3840  -34.8480 N.ar     11   A11      -0.6073
    346 C8         22.7710  -14.6760  -34.6740 C.ar     11   A11       0.2006
    347 N9         22.9880  -15.0490  -33.3610 N.ar     11   A11      -0.0251
    348 OP1        21.4880  -16.7220  -37.7260 O.co2    11   A11      -0.7760
    349 OP2        19.3280  -17.9730  -37.2990 O.co2    11   A11      -0.7760
    350 H5'        20.1918  -19.0629  -34.7459 H        11   A11       0.0679
    351 H5''       21.6736  -18.9115  -35.7268 H        11   A11       0.0679
    352 H4'        22.2999  -19.2609  -33.4230 H        11   A11       0.1174
    353 H3'        20.0530  -17.4602  -32.8393 H        11   A11       0.0615
    354 H2'        21.2978  -15.8507  -31.9145 H        11   A11       0.0972
    355 H1'        24.0145  -16.5672  -32.2602 H        11   A11       0.2007
    356 H2         24.4927  -12.3205  -30.1963 H        11   A11       0.0473
    357 H8         22.5379  -15.3720  -35.4663 H        11   A11       0.1553
    358 HO2'       21.5371  -17.2030  -30.0552 H        11   A11       0.4186
    359 H61        23.0779   -9.5378  -33.4403 H        11   A11       0.4115
    360 H62        22.3967  -10.5650  -34.6816 H        11   A11       0.4115
    361 P          19.3830  -19.1600  -30.9230 P.3      12   G12       1.1662
    362 C5'        17.8380  -17.4090  -29.6700 C.3      12   G12       0.0558
    363 O5'        19.0940  -17.7290  -30.2290 O.3      12   G12      -0.4989
    364 C4'        18.0540  -16.4910  -28.4530 C.3      12   G12       0.1065
    365 O4'        16.7870  -16.3760  -27.7420 O.3      12   G12      -0.3548
    366 C3'        18.7970  -17.1600  -27.3310 C.3      12   G12       0.2022
    367 O3'        18.9150  -16.2800  -26.2180 O.3      12   G12      -0.5246
    368 C2'        17.8590  -18.3420  -26.9950 C.3      12   G12       0.0670
    369 O2'        18.2580  -19.0220  -25.8380 O.3      12   G12      -0.6139
    370 C1'        16.7170  -17.3600  -26.7110 C.3      12   G12       0.0191
    371 N1         12.5510  -18.1700  -23.8620 N.am     12   G12      -0.4787
    372 C2         13.7590  -17.5830  -23.5480 C.2      12   G12       0.7657
    373 N2         13.9010  -17.1530  -22.2870 N.pl3    12   G12      -0.9672
    374 N3         14.8820  -17.7270  -24.3010 N.2      12   G12      -0.6323
    375 C4         14.5980  -18.1930  -25.5600 C.ar     12   G12       0.1222
    376 C5         13.3550  -18.5350  -26.0370 C.ar     12   G12       0.1744
    377 C6         12.2670  -18.7240  -25.1310 C.2      12   G12       0.4770
    378 O6         11.1560  -19.2160  -25.3660 O.2      12   G12      -0.5597
    379 N7         13.4730  -18.9900  -27.3670 N.ar     12   G12      -0.5709
    380 C8         14.7230  -18.7070  -27.6520 C.ar     12   G12       0.1374
    381 N9         15.3920  -18.0120  -26.6900 N.ar     12   G12       0.0492
    382 OP1        19.5870  -20.1770  -29.8530 O.co2    12   G12      -0.7760
    383 OP2        18.4450  -19.3780  -32.0110 O.co2    12   G12      -0.7760
    384 H5'        17.2274  -16.8949  -30.4123 H        12   G12       0.0679
    385 H5''       17.3356  -18.3230  -29.3534 H        12   G12       0.0679
    386 H4'        18.4770  -15.5234  -28.7228 H        12   G12       0.1174
    387 H3'        19.7743  -17.5131  -27.6602 H        12   G12       0.0615
    388 H2'        17.6669  -19.0000  -27.8425 H        12   G12       0.0972
    389 H1'        16.8922  -16.8796  -25.7484 H        12   G12       0.2006
    390 H1         11.8347  -18.2057  -23.1508 H        12   G12       0.3424
    391 H8         15.1870  -19.0035  -28.5811 H        12   G12       0.1640
    392 H21        13.1108  -17.1510  -21.6580 H        12   G12       0.4364
    393 H22        14.8017  -16.8296  -21.9642 H        12   G12       0.4364
    394 HO2'       18.9724  -19.6266  -26.0519 H        12   G12       0.4186
    395 P          20.3580  -15.6270  -25.8410 P.3      13   G13       1.1662
    396 C5'        19.6600  -14.7610  -23.4700 C.3      13   G13       0.0558
    397 O5'        19.9920  -14.4200  -24.8440 O.3      13   G13      -0.4989
    398 C4'        19.4430  -13.4590  -22.7370 C.3      13   G13       0.1065
    399 O4'        18.3120  -12.7580  -23.3300 O.3      13   G13      -0.3548
    400 C3'        18.9770  -13.6810  -21.3140 C.3      13   G13       0.2022
    401 O3'        18.8810  -12.4090  -20.6450 O.3      13   G13      -0.5246
    402 C2'        17.5480  -14.1960  -21.6030 C.3      13   G13       0.0670
    403 O2'        16.8020  -14.1510  -20.3940 O.3      13   G13      -0.6139
    404 C1'        17.1510  -13.0670  -22.5750 C.3      13   G13       0.0191
    405 N1         12.0250  -13.1150  -22.7090 N.am     13   G13      -0.4787
    406 C2         12.9040  -12.6010  -21.7540 C.2      13   G13       0.7657
    407 N2         12.3560  -11.7930  -20.8160 N.pl3    13   G13      -0.9672
    408 N3         14.2410  -12.7260  -21.8280 N.2      13   G13      -0.6323
    409 C4         14.6660  -13.2940  -22.9710 C.ar     13   G13       0.1222
    410 C5         13.8810  -13.7850  -23.9840 C.ar     13   G13       0.1744
    411 C6         12.4510  -13.6220  -23.9320 C.2      13   G13       0.4770
    412 O6         11.6290  -13.9700  -24.8110 O.2      13   G13      -0.5597
    413 N7         14.6720  -14.3260  -25.0000 N.ar     13   G13      -0.5709
    414 C8         15.8940  -14.1180  -24.5550 C.ar     13   G13       0.1374
    415 N9         15.9790  -13.4340  -23.3820 N.ar     13   G13       0.0492
    416 OP1        20.9030  -15.0610  -27.0850 O.co2    13   G13      -0.7760
    417 OP2        21.1000  -16.6470  -25.0970 O.co2    13   G13      -0.7760
    418 H5'        20.4790  -15.3166  -23.0131 H        13   G13       0.0679
    419 H5''       18.7479  -15.3572  -23.4455 H        13   G13       0.0679
    420 H4'        20.3414  -12.8423  -22.7620 H        13   G13       0.1174
    421 H3'        19.5889  -14.4025  -20.7726 H        13   G13       0.0615
    422 H2'        17.5387  -15.1806  -22.0705 H        13   G13       0.0972
    423 H1'        16.8908  -12.1894  -21.9833 H        13   G13       0.2006
    424 H1         11.0363  -13.1189  -22.5027 H        13   G13       0.3424
    425 H8         16.7683  -14.4664  -25.0847 H        13   G13       0.1640
    426 H21        11.3570  -11.6453  -20.7964 H        13   G13       0.4364
    427 H22        12.9468  -11.3374  -20.1351 H        13   G13       0.4364
    428 HO2'       17.2192  -13.5397  -19.7826 H        13   G13       0.4186
    429 P          19.1190  -12.3510  -19.0590 P.3      14   U14       1.1662
    430 C5'        20.7530  -10.3250  -19.3930 C.3      14   U14       0.0558
    431 O5'        19.5490  -10.7820  -18.8410 O.3      14   U14      -0.4989
    432 C4'        20.4940   -9.1530  -20.3590 C.3      14   U14       0.1065
    433 O4'        19.4950   -9.4800  -21.3190 O.3      14   U14      -0.3548
    434 C3'        20.0140   -7.9110  -19.6700 C.3      14   U14       0.2022
    435 O3'        21.0800   -7.1380  -19.0840 O.3      14   U14      -0.5246
    436 C2'        19.3540   -7.2050  -20.8100 C.3      14   U14       0.0670
    437 O2'        20.3550   -6.4620  -21.5590 O.3      14   U14      -0.6139
    438 C1'        18.7100   -8.2940  -21.6080 C.3      14   U14       0.0674
    439 N1         17.3070   -8.5870  -21.1610 N.am     14   U14       0.0418
    440 C2         16.3550   -7.6170  -21.4840 C.2      14   U14       0.4687
    441 O2         16.6400   -6.5740  -22.0300 O.2      14   U14      -0.5477
    442 N3         15.0920   -7.8980  -20.9500 N.am     14   U14      -0.3549
    443 C4         14.6760   -8.9750  -20.2110 C.2      14   U14       0.5952
    444 O4         13.4820   -9.1350  -19.9150 O.2      14   U14      -0.5761
    445 C5         15.7460   -9.9610  -20.0140 C.2      14   U14      -0.3635
    446 C6         17.0310   -9.6590  -20.3450 C.2      14   U14      -0.1126
    447 OP1        20.3310  -13.1240  -18.7650 O.co2    14   U14      -0.7760
    448 OP2        17.8330  -12.5830  -18.3910 O.co2    14   U14      -0.7760
    449 H5'        21.4106   -9.9898  -18.5910 H        14   U14       0.0679
    450 H5''       21.2327  -11.1397  -19.9355 H        14   U14       0.0679
    451 H4'        21.4208   -8.9236  -20.8849 H        14   U14       0.1174
    452 H3'        19.2755   -8.1663  -18.9100 H        14   U14       0.0615
    453 H2'        18.5924   -6.5229  -20.4321 H        14   U14       0.0972
    454 H1'        18.7368   -8.0617  -22.6726 H        14   U14       0.1824
    455 H3         14.3820   -7.2045  -21.1369 H        14   U14       0.3154
    456 H5         15.5117  -10.9322  -19.6038 H        14   U14       0.1811
    457 H6         17.8396  -10.2654  -19.9642 H        14   U14       0.2188
    458 HO2'       19.9343   -6.0071  -22.2923 H        14   U14       0.4186
    459 P          20.8470   -6.2880  -17.7750 P.3      15   U15       1.1662
    460 C5'        21.8420   -8.0810  -16.1700 C.3      15   U15       0.0558
    461 O5'        20.6980   -7.3800  -16.6270 O.3      15   U15      -0.4989
    462 C4'        21.6360   -9.5710  -16.2340 C.3      15   U15       0.1065
    463 O4'        22.8530  -10.2650  -16.1160 O.3      15   U15      -0.3548
    464 C3'        20.6190  -10.1140  -15.2690 C.3      15   U15       0.2022
    465 O3'        19.3730  -10.3810  -15.9680 O.3      15   U15      -0.5246
    466 C2'        21.2300  -11.4790  -14.8860 C.3      15   U15       0.0670
    467 O2'        20.6020  -12.5540  -15.6450 O.3      15   U15      -0.6139
    468 C1'        22.7370  -11.4060  -15.2540 C.3      15   U15       0.0674
    469 N1         23.4640  -11.0860  -13.9850 N.am     15   U15       0.0418
    470 C2         23.7010  -12.1660  -13.1230 C.2      15   U15       0.4687
    471 O2         23.1770  -13.2660  -13.3120 O.2      15   U15      -0.5477
    472 N3         24.4560  -11.8780  -11.9860 N.am     15   U15      -0.3549
    473 C4         24.9760  -10.6120  -11.6630 C.2      15   U15       0.5952
    474 O4         25.6230  -10.4630  -10.6100 O.2      15   U15      -0.5761
    475 C5         24.7730   -9.5880  -12.6680 C.2      15   U15      -0.3635
    476 C6         24.1660   -9.9170  -13.8580 C.2      15   U15      -0.1126
    477 OP1        19.5050   -5.6340  -17.9170 O.co2    15   U15      -0.7760
    478 OP2        22.0260   -5.4150  -17.5340 O.co2    15   U15      -0.7760
    479 H5'        22.0438   -7.7952  -15.1377 H        15   U15       0.0679
    480 H5''       22.6975   -7.8115  -16.7894 H        15   U15       0.0679
    481 H4'        21.2562   -9.7855  -17.2329 H        15   U15       0.1174
    482 H3'        20.4791   -9.4648  -14.4047 H        15   U15       0.0615
    483 H2'        21.1128  -11.6561  -13.8169 H        15   U15       0.0972
    484 H1'        23.0975  -12.3218  -15.7224 H        15   U15       0.1824
    485 H3         24.6435  -12.6365  -11.3460 H        15   U15       0.3154
    486 H5         25.0959   -8.5739  -12.4842 H        15   U15       0.1811
    487 H6         24.2439   -9.2463  -14.7009 H        15   U15       0.2188
    488 HO2'       20.0794  -13.1008  -15.0538 H        15   U15       0.4186
    489 P          17.9770  -10.2830  -15.1790 P.3      16   U16       1.1662
    490 C5'        17.7360  -12.9150  -15.0960 C.3      16   U16       0.0558
    491 O5'        17.9200  -11.6810  -14.4230 O.3      16   U16      -0.4989
    492 C4'        17.9410  -14.0680  -14.1620 C.3      16   U16       0.1065
    493 O4'        19.3070  -14.1470  -13.6940 O.3      16   U16      -0.3548
    494 C3'        17.0080  -14.0470  -12.9830 C.3      16   U16       0.2022
    495 O3'        15.8510  -14.8400  -13.1940 O.3      16   U16      -0.5246
    496 C2'        17.8690  -14.5510  -11.8670 C.3      16   U16       0.0670
    497 O2'        17.5820  -15.8800  -11.5150 O.3      16   U16      -0.6139
    498 C1'        19.3120  -14.3420  -12.2620 C.3      16   U16       0.0674
    499 N1         19.8280  -13.1280  -11.5810 N.am     16   U16       0.0418
    500 C2         20.0900  -13.2090  -10.2470 C.2      16   U16       0.4687
    501 O2         19.9780  -14.2840   -9.6370 O.2      16   U16      -0.5477
    502 N3         20.5390  -12.0500   -9.6120 N.am     16   U16      -0.3549
    503 C4         20.7660  -10.7970  -10.2300 C.2      16   U16       0.5952
    504 O4         21.1560   -9.8490   -9.5680 O.2      16   U16      -0.5761
    505 C5         20.3010  -10.7790  -11.6230 C.2      16   U16      -0.3635
    506 C6         19.9710  -11.9480  -12.2590 C.2      16   U16      -0.1126
    507 OP1        16.8890  -10.2850  -16.2140 O.co2    16   U16      -0.7760
    508 OP2        18.0830   -9.1680  -14.2100 O.co2    16   U16      -0.7760
    509 H5'        16.7230  -12.9557  -15.4962 H        16   U16       0.0679
    510 H5''       18.4496  -12.9864  -15.9168 H        16   U16       0.0679
    511 H4'        17.7362  -14.9803  -14.7222 H        16   U16       0.1174
    512 H3'        16.7100  -13.0194  -12.7750 H        16   U16       0.0615
    513 H2'        17.6733  -13.9293  -10.9934 H        16   U16       0.0972
    514 H1'        19.9111  -15.2131  -11.9968 H        16   U16       0.1824
    515 H3         20.7185  -12.1110   -8.6200 H        16   U16       0.3154
    516 H5         20.2185   -9.8396  -12.1494 H        16   U16       0.1811
    517 H6         19.8192  -11.9372  -13.3282 H        16   U16       0.2188
    518 HO2'       17.7232  -16.4498  -12.2746 H        16   U16       0.4186
    519 P          14.3750  -14.2410  -12.9240 P.3      17   G17       1.1662
    520 C5'        14.2310  -13.3750  -15.3700 C.3      17   G17       0.0558
    521 O5'        14.3390  -13.0490  -14.0100 O.3      17   G17      -0.4989
    522 C4'        13.2050  -12.4090  -16.0050 C.3      17   G17       0.1065
    523 O4'        13.0990  -12.6580  -17.4290 O.3      17   G17      -0.3548
    524 C3'        11.8460  -12.7040  -15.4220 C.3      17   G17       0.2022
    525 O3'        11.0460  -11.5100  -15.3780 O.3      17   G17      -0.5246
    526 C2'        11.2900  -13.6990  -16.3900 C.3      17   G17       0.0670
    527 O2'         9.8790  -13.8400  -16.2910 O.3      17   G17      -0.6139
    528 C1'        11.7600  -13.1390  -17.7320 C.3      17   G17       0.0191
    529 N1          8.9180  -15.9790  -20.9130 N.am     17   G17      -0.4787
    530 C2          8.5630  -14.8740  -20.1200 C.2      17   G17       0.7657
    531 N2          7.2800  -14.4730  -20.3160 N.pl3    17   G17      -0.9672
    532 N3          9.3760  -14.2490  -19.2980 N.2      17   G17      -0.6323
    533 C4         10.6890  -14.6440  -19.4580 C.ar     17   G17       0.1222
    534 C5         11.1570  -15.6280  -20.2930 C.ar     17   G17       0.1744
    535 C6         10.2510  -16.4220  -21.0670 C.2      17   G17       0.4770
    536 O6         10.4750  -17.4020  -21.7870 O.2      17   G17      -0.5597
    537 N7         12.5600  -15.6460  -20.2820 N.ar     17   G17      -0.5709
    538 C8         12.8780  -14.7540  -19.3850 C.ar     17   G17       0.1374
    539 N9         11.7780  -14.1990  -18.7460 N.ar     17   G17       0.0492
    540 OP1        14.3910  -13.7030  -11.5550 O.co2    17   G17      -0.7760
    541 OP2        13.4290  -15.3120  -13.3230 O.co2    17   G17      -0.7760
    542 H5'        15.1994  -13.2604  -15.8571 H        17   G17       0.0679
    543 H5''       13.8843  -14.4029  -15.4763 H        17   G17       0.0679
    544 H4'        13.4863  -11.3729  -15.8168 H        17   G17       0.1174
    545 H3'        11.9393  -13.1427  -14.4286 H        17   G17       0.0615
    546 H2'        11.7607  -14.6673  -16.2201 H        17   G17       0.0972
    547 H1'        11.1197  -12.3159  -18.0493 H        17   G17       0.2006
    548 H1          8.1857  -16.4800  -21.3955 H        17   G17       0.3424
    549 H8         13.8971  -14.4748  -19.1615 H        17   G17       0.1640
    550 H21         6.6893  -14.9702  -20.9671 H        17   G17       0.4364
    551 H22         6.9167  -13.6776  -19.8106 H        17   G17       0.4364
    552 HO2'        9.5945  -13.6022  -15.4055 H        17   G17       0.4186
    553 P          10.0230  -11.2650  -14.1580 P.3      18   G18       1.1662
    554 C5'         7.8530  -11.1030  -15.5460 C.3      18   G18       0.0558
    555 O5'         8.8590  -10.3800  -14.8350 O.3      18   G18      -0.4989
    556 C4'         6.8620  -10.0980  -16.1950 C.3      18   G18       0.1065
    557 O4'         7.4080   -9.4950  -17.3610 O.3      18   G18      -0.3548
    558 C3'         5.6070  -10.8760  -16.6560 C.3      18   G18       0.2022
    559 O3'         4.4320  -10.0550  -16.5270 O.3      18   G18      -0.5246
    560 C2'         5.9530  -11.1690  -18.1010 C.3      18   G18       0.0670
    561 O2'         4.8370  -11.4950  -18.9140 O.3      18   G18      -0.6139
    562 C1'         6.6520   -9.9110  -18.5380 C.3      18   G18       0.0191
    563 N1          7.1100  -11.4730  -23.3970 N.am     18   G18      -0.4787
    564 C2          6.0480  -10.8260  -22.7520 C.2      18   G18       0.7657
    565 N2          4.9490  -10.7100  -23.4960 N.pl3    18   G18      -0.9672
    566 N3          6.0840  -10.3840  -21.4920 N.2      18   G18      -0.6323
    567 C4          7.3100  -10.5480  -20.9010 C.ar     18   G18       0.1222
    568 C5          8.3790  -11.2410  -21.4360 C.ar     18   G18       0.1744
    569 C6          8.3170  -11.7530  -22.7580 C.2      18   G18       0.4770
    570 O6          9.2390  -12.3580  -23.3470 O.2      18   G18      -0.5597
    571 N7          9.4690  -11.1790  -20.5420 N.ar     18   G18      -0.5709
    572 C8          8.9630  -10.6290  -19.4640 C.ar     18   G18       0.1374
    573 N9          7.6490  -10.1920  -19.6230 N.ar     18   G18       0.0492
    574 OP1        10.6670  -10.4980  -13.1070 O.co2    18   G18      -0.7760
    575 OP2         9.3640  -12.5750  -13.8070 O.co2    18   G18      -0.7760
    576 H5'         7.3139  -11.7515  -14.8554 H        18   G18       0.0679
    577 H5''        8.3200  -11.7074  -16.3236 H        18   G18       0.0679
    578 H4'         6.5819   -9.3305  -15.4735 H        18   G18       0.1174
    579 H3'         5.4962  -11.8009  -16.0900 H        18   G18       0.0615
    580 H2'         6.6637  -11.9949  -18.1318 H        18   G18       0.0972
    581 H1'         5.9384   -9.1455  -18.8428 H        18   G18       0.2006
    582 H1          6.9968  -11.7473  -24.3624 H        18   G18       0.3424
    583 H8          9.5127  -10.5246  -18.5403 H        18   G18       0.1640
    584 H21         4.9401  -11.0630  -24.4423 H        18   G18       0.4364
    585 H22         4.1246  -10.2691  -23.1138 H        18   G18       0.4364
    586 HO2'        4.7622  -10.8562  -19.6267 H        18   G18       0.4186
    587 P           3.2320  -10.4050  -15.5590 P.3      19   U19       1.1662
    588 C5'         3.3500   -8.1350  -14.2890 C.3      19   U19       0.0558
    589 O5'         2.6170   -8.9550  -15.1800 O.3      19   U19      -0.4989
    590 C4'         2.7310   -6.7690  -14.1590 C.3      19   U19       0.1065
    591 O4'         3.2520   -6.0130  -13.0420 O.3      19   U19      -0.3548
    592 C3'         3.0950   -5.8100  -15.2960 C.3      19   U19       0.2022
    593 O3'         2.1960   -4.7110  -15.3230 O.3      19   U19      -0.5246
    594 C2'         4.4990   -5.4410  -14.9250 C.3      19   U19       0.0670
    595 O2'         4.9410   -4.2930  -15.6230 O.3      19   U19      -0.6139
    596 C1'         4.3210   -5.1530  -13.4410 C.3      19   U19       0.0674
    597 N1          5.6060   -5.4910  -12.7520 N.am     19   U19       0.0418
    598 C2          6.4630   -4.4710  -12.3990 C.2      19   U19       0.4687
    599 O2          6.2290   -3.2780  -12.6630 O.2      19   U19      -0.5477
    600 N3          7.5140   -4.8130  -11.5440 N.am     19   U19      -0.3549
    601 C4          7.9710   -6.1240  -11.3660 C.2      19   U19       0.5952
    602 O4          9.0830   -6.3070  -10.8340 O.2      19   U19      -0.5761
    603 C5          7.1240   -7.1480  -11.9230 C.2      19   U19      -0.3635
    604 C6          5.9970   -6.8080  -12.6050 C.2      19   U19      -0.1126
    605 OP1         3.7770  -10.9850  -14.2990 O.co2    19   U19      -0.7760
    606 OP2         2.2320  -11.1550  -16.3040 O.co2    19   U19      -0.7760
    607 H5'         3.3707   -8.6090  -13.3077 H        19   U19       0.0679
    608 H5''        4.3707   -8.0310  -14.6570 H        19   U19       0.0679
    609 H4'         1.6476   -6.8566  -14.0773 H        19   U19       0.1174
    610 H3'         3.0813   -6.3337  -16.2518 H        19   U19       0.0615
    611 H2'         5.1779   -6.2793  -15.0818 H        19   U19       0.0972
    612 H1'         4.0580   -4.1078  -13.2785 H        19   U19       0.1824
    613 H3          7.9685   -4.0743  -11.0265 H        19   U19       0.3154
    614 H5          7.3846   -8.1887  -11.7987 H        19   U19       0.1811
    615 H6          5.3920   -7.5881  -13.0430 H        19   U19       0.2188
    616 HO2'        4.2874   -4.0470  -16.2817 H        19   U19       0.4186
    617 P           1.7710   -3.9970  -16.6860 P.3      20   A20       1.1662
    618 C5'        -0.0860   -5.0560  -18.2440 C.3      20   A20       0.0558
    619 O5'         1.1700   -5.1230  -17.6230 O.3      20   A20      -0.4989
    620 C4'        -0.4370   -6.2620  -19.0570 C.3      20   A20       0.1065
    621 O4'         0.3880   -6.4000  -20.2110 O.3      20   A20      -0.3548
    622 C3'        -0.3620   -7.5670  -18.2960 C.3      20   A20       0.2022
    623 O3'        -1.5590   -7.9510  -17.6810 O.3      20   A20      -0.5246
    624 C2'         0.0960   -8.5490  -19.3390 C.3      20   A20       0.0670
    625 O2'        -0.9240   -9.3030  -19.9540 O.3      20   A20      -0.6139
    626 C1'         0.8840   -7.7360  -20.3940 C.3      20   A20       0.0394
    627 N1          5.3810   -5.9310  -21.9110 N.ar     20   A20      -0.7615
    628 C2          4.3290   -6.3920  -22.5880 C.ar     20   A20       0.5875
    629 N3          3.2070   -6.9760  -22.1650 N.ar     20   A20      -0.6997
    630 C4          3.3400   -7.2440  -20.8280 C.ar     20   A20       0.3053
    631 C5          4.3700   -6.8670  -19.9790 C.ar     20   A20       0.0515
    632 C6          5.4690   -6.1880  -20.5770 C.ar     20   A20       0.7009
    633 N6          6.5910   -5.8530  -19.9040 N.pl3    20   A20      -0.9019
    634 N7          4.0840   -7.2260  -18.6660 N.ar     20   A20      -0.6073
    635 C8          2.8450   -7.6380  -18.7220 C.ar     20   A20       0.2006
    636 N9          2.3230   -7.7390  -20.0030 N.ar     20   A20      -0.0251
    637 OP1         3.0280   -3.5040  -17.3480 O.co2    20   A20      -0.7760
    638 OP2         0.7380   -2.9450  -16.4150 O.co2    20   A20      -0.7760
    639 H5'        -0.0954   -4.1868  -18.9016 H        20   A20       0.0679
    640 H5''       -0.8475   -4.9200  -17.4760 H        20   A20       0.0679
    641 H4'        -1.4644   -6.1398  -19.3999 H        20   A20       0.1174
    642 H3'         0.4114   -7.4822  -17.5326 H        20   A20       0.0615
    643 H2'         0.7885   -9.2444  -18.8647 H        20   A20       0.0972
    644 H1'         0.7263   -8.1044  -21.4077 H        20   A20       0.2007
    645 H2          4.3968   -6.2724  -23.6592 H        20   A20       0.0473
    646 H8          2.2721   -7.8810  -17.8393 H        20   A20       0.1553
    647 H61         7.3502   -5.3924  -20.3852 H        20   A20       0.4115
    648 H62         6.6709   -6.0631  -18.9193 H        20   A20       0.4115
    649 HO2'       -0.6146  -10.1998  -20.1011 H        20   A20       0.4186
    650 P          -1.5590   -8.6570  -16.2560 P.3      21   U21       1.1662
    651 C5'        -1.3250  -10.9920  -17.3760 C.3      21   U21       0.0558
    652 O5'        -0.7390  -10.0320  -16.5030 O.3      21   U21      -0.4989
    653 C4'        -0.7830  -12.3960  -17.0330 C.3      21   U21       0.1065
    654 O4'        -0.9850  -12.6160  -15.6200 O.3      21   U21      -0.3548
    655 C3'        -1.5420  -13.4300  -17.8790 C.3      21   U21       0.2022
    656 O3'        -0.6330  -14.3790  -18.4930 O.3      21   U21      -0.5246
    657 C2'        -2.4230  -14.0820  -16.8150 C.3      21   U21       0.0670
    658 O2'        -2.2060  -15.5000  -16.8530 O.3      21   U21      -0.6139
    659 C1'        -2.0500  -13.5360  -15.4240 C.3      21   U21       0.0674
    660 N1         -3.2450  -12.9070  -14.7810 N.am     21   U21       0.0418
    661 C2         -3.5710  -13.2830  -13.4830 C.2      21   U21       0.4687
    662 O2         -3.2080  -14.3900  -13.0490 O.2      21   U21      -0.5477
    663 N3         -4.7900  -12.7620  -13.0350 N.am     21   U21      -0.3549
    664 C4         -5.5450  -11.7490  -13.6200 C.2      21   U21       0.5952
    665 O4         -6.6410  -11.3930  -13.1400 O.2      21   U21      -0.5761
    666 C5         -5.0080  -11.2850  -14.9070 C.2      21   U21      -0.3635
    667 C6         -3.8590  -11.8460  -15.4120 C.2      21   U21      -0.1126
    668 OP1        -2.9550   -8.9810  -15.8660 O.co2    21   U21      -0.7760
    669 OP2        -0.7600   -7.7920  -15.3120 O.co2    21   U21      -0.7760
    670 H5'        -1.0725  -10.7470  -18.4076 H        21   U21       0.0679
    671 H5''       -2.4081  -10.9807  -17.2543 H        21   U21       0.0679
    672 H4'         0.2814  -12.4443  -17.2630 H        21   U21       0.1174
    673 H3'        -2.1523  -12.9362  -18.6351 H        21   U21       0.0615
    674 H2'        -3.4707  -13.8661  -17.0244 H        21   U21       0.0972
    675 H1'        -1.7006  -14.3585  -14.7999 H        21   U21       0.1824
    676 H3         -5.1655  -13.1676  -12.1897 H        21   U21       0.3154
    677 H5         -5.5151  -10.5047  -15.4550 H        21   U21       0.1811
    678 H6         -3.4295  -11.4483  -16.3196 H        21   U21       0.2188
    679 HO2'       -1.3448  -15.6822  -17.2360 H        21   U21       0.4186
    680 P          -0.9770  -14.9420  -19.9710 P.3      22   G22       1.1662
    681 C5'         0.5610  -13.2140  -21.1380 C.3      22   G22       0.0558
    682 O5'        -0.7740  -13.5800  -20.8620 O.3      22   G22      -0.4989
    683 C4'         0.6120  -12.2620  -22.3090 C.3      22   G22       0.1065
    684 O4'         1.9580  -12.0970  -22.8370 O.3      22   G22      -0.3548
    685 C3'        -0.0800  -12.8450  -23.5670 C.3      22   G22       0.2022
    686 O3'        -0.1440  -11.8610  -24.6190 O.3      22   G22      -0.5246
    687 C2'         0.9290  -13.9210  -23.8820 C.3      22   G22       0.0670
    688 O2'         0.7360  -14.4250  -25.2030 O.3      22   G22      -0.6139
    689 C1'         2.2220  -13.0980  -23.8560 C.3      22   G22       0.0191
    690 N1          5.8410  -16.5050  -25.3290 N.am     22   G22      -0.4787
    691 C2          4.7190  -16.0220  -26.0150 C.2      22   G22       0.7657
    692 N2          4.6000  -16.4460  -27.2880 N.pl3    22   G22      -0.9672
    693 N3          3.8200  -15.1760  -25.5000 N.2      22   G22      -0.6323
    694 C4          4.1550  -14.7450  -24.2650 C.ar     22   G22       0.1222
    695 C5          5.2750  -15.1020  -23.5400 C.ar     22   G22       0.1744
    696 C6          6.2390  -15.9900  -24.0910 C.2      22   G22       0.4770
    697 O6          7.2660  -16.4240  -23.5330 O.2      22   G22      -0.5597
    698 N7          5.1320  -14.6120  -22.2290 N.ar     22   G22      -0.5709
    699 C8          4.1080  -13.8120  -22.2790 C.ar     22   G22       0.1374
    700 N9          3.4010  -13.9060  -23.4750 N.ar     22   G22       0.0492
    701 OP1        -2.4320  -15.2150  -19.9780 O.co2    22   G22      -0.7760
    702 OP2         0.0400  -15.8930  -20.4010 O.co2    22   G22      -0.7760
    703 H5'         0.9892  -12.7284  -20.2611 H        22   G22       0.0679
    704 H5''        1.1388  -14.1076  -21.3740 H        22   G22       0.0679
    705 H4'         0.1803  -11.2973  -22.0422 H        22   G22       0.1174
    706 H3'        -1.0611  -13.2606  -23.3371 H        22   G22       0.0615
    707 H2'         0.9312  -14.7147  -23.1349 H        22   G22       0.0972
    708 H1'         2.3864  -12.6206  -24.8220 H        22   G22       0.2006
    709 H1          6.3814  -17.2512  -25.7429 H        22   G22       0.3424
    710 H8          3.8342  -13.1438  -21.4759 H        22   G22       0.1640
    711 H21         5.2870  -17.0761  -27.6767 H        22   G22       0.4364
    712 H22         3.8238  -16.1338  -27.8538 H        22   G22       0.4364
    713 HO2'       -0.1414  -14.1873  -25.5117 H        22   G22       0.4186
    714 P          -1.4240  -11.9750  -25.6260 P.3      23   G23       1.1662
    715 C5'        -0.6830  -11.9570  -28.1410 C.3      23   G23       0.0558
    716 O5'        -0.9330  -11.2430  -26.9450 O.3      23   G23      -0.4989
    717 C4'         0.0440  -11.0740  -29.1650 C.3      23   G23       0.1065
    718 O4'         1.2880  -10.6350  -28.6880 O.3      23   G23      -0.3548
    719 C3'         0.4230  -11.9520  -30.3900 C.3      23   G23       0.2022
    720 O3'         0.7300  -11.1040  -31.4850 O.3      23   G23      -0.5246
    721 C2'         1.6540  -12.6450  -29.8380 C.3      23   G23       0.0670
    722 O2'         2.3960  -13.3350  -30.8070 O.3      23   G23      -0.6139
    723 C1'         2.3450  -11.4170  -29.2840 C.3      23   G23       0.0191
    724 N1          6.9320  -13.4460  -28.1840 N.am     23   G23      -0.4787
    725 C2          6.2640  -13.3630  -29.3930 C.2      23   G23       0.7657
    726 N2          6.8760  -13.9110  -30.4630 N.pl3    23   G23      -0.9672
    727 N3          4.9900  -12.8980  -29.5270 N.2      23   G23      -0.6323
    728 C4          4.4260  -12.5920  -28.3350 C.ar     23   G23       0.1222
    729 C5          5.0630  -12.5430  -27.1190 C.ar     23   G23       0.1744
    730 C6          6.3940  -13.0650  -26.9790 C.2      23   G23       0.4770
    731 O6          6.9990  -13.1860  -25.8980 O.2      23   G23      -0.5597
    732 N7          4.3000  -11.7740  -26.2120 N.ar     23   G23      -0.5709
    733 C8          3.1840  -11.5580  -26.8240 C.ar     23   G23       0.1374
    734 N9          3.3000  -11.7890  -28.1940 N.ar     23   G23       0.0492
    735 OP1        -2.5270  -11.1990  -24.9800 O.co2    23   G23      -0.7760
    736 OP2        -1.5920  -13.4100  -25.9360 O.co2    23   G23      -0.7760
    737 H5'        -1.6317  -12.2869  -28.5643 H        23   G23       0.0679
    738 H5''       -0.0675  -12.8282  -27.9170 H        23   G23       0.0679
    739 H4'        -0.5785  -10.2314  -29.4660 H        23   G23       0.1174
    740 H3'        -0.3650  -12.6632  -30.6375 H        23   G23       0.0615
    741 H2'         1.3754  -13.3182  -29.0273 H        23   G23       0.0972
    742 H1'         2.8484  -10.8596  -30.0739 H        23   G23       0.2006
    743 H1          7.8743  -13.8095  -28.1879 H        23   G23       0.3424
    744 H8          2.2750  -11.2386  -26.3361 H        23   G23       0.1640
    745 H21         7.8001  -14.3076  -30.3689 H        23   G23       0.4364
    746 H22         6.4098  -13.9247  -31.3589 H        23   G23       0.4364
    747 HO2'        3.2898  -12.9859  -30.8348 H        23   G23       0.4186
    748 P          -0.2370  -11.0660  -32.7500 P.3      24   G24       1.1662
    749 C5'        -1.0080   -8.5990  -32.6360 C.3      24   G24       0.0558
    750 O5'        -0.0990   -9.5180  -33.2410 O.3      24   G24      -0.4989
    751 C4'        -0.2150   -7.5660  -31.8530 C.3      24   G24       0.1065
    752 O4'         0.7290   -8.1510  -30.9540 O.3      24   G24      -0.3548
    753 C3'         0.6280   -6.7290  -32.7770 C.3      24   G24       0.2022
    754 O3'        -0.0820   -5.5990  -33.3350 O.3      24   G24      -0.5246
    755 C2'         1.7200   -6.2010  -31.8330 C.3      24   G24       0.0670
    756 O2'         1.4270   -4.9270  -31.3120 O.3      24   G24      -0.6139
    757 C1'         1.8330   -7.2450  -30.7530 C.3      24   G24       0.0191
    758 N1          4.6700  -10.8610  -33.0580 N.am     24   G24      -0.4787
    759 C2          3.4720  -10.2820  -33.4430 C.2      24   G24       0.7657
    760 N2          2.9490  -10.7440  -34.6070 N.pl3    24   G24      -0.9672
    761 N3          2.8670   -9.2590  -32.8050 N.2      24   G24      -0.6323
    762 C4          3.6020   -8.8010  -31.7440 C.ar     24   G24       0.1222
    763 C5          4.6910   -9.4230  -31.2260 C.ar     24   G24       0.1744
    764 C6          5.4090  -10.3960  -31.9580 C.2      24   G24       0.4770
    765 O6          6.5590  -10.8330  -31.7340 O.2      24   G24      -0.5597
    766 N7          5.0800   -8.7930  -30.0210 N.ar     24   G24      -0.5709
    767 C8          4.0640   -7.9860  -29.7760 C.ar     24   G24       0.1374
    768 N9          3.1160   -7.9710  -30.7560 N.ar     24   G24       0.0492
    769 OP1        -1.6460  -11.2980  -32.3250 O.co2    24   G24      -0.7760
    770 OP2         0.3560  -11.8900  -33.8360 O.co2    24   G24      -0.7760
    771 H5'        -1.6759   -9.1353  -31.9619 H        24   G24       0.0679
    772 H5''       -1.5926   -8.1010  -33.4095 H        24   G24       0.0679
    773 H4'        -0.8987   -6.9232  -31.2984 H        24   G24       0.1174
    774 H3'         1.0622   -7.3420  -33.5669 H        24   G24       0.0615
    775 H2'         2.6634   -6.1518  -32.3768 H        24   G24       0.0972
    776 H1'         1.7114   -6.7584  -29.7853 H        24   G24       0.2006
    777 H1          5.0245  -11.6450  -33.5869 H        24   G24       0.3424
    778 H8          3.9903   -7.3902  -28.8783 H        24   G24       0.1640
    779 H21         2.0950  -10.3457  -34.9706 H        24   G24       0.4364
    780 H22         3.4139  -11.4864  -35.1098 H        24   G24       0.4364
    781 HO2'        2.1905   -4.3546  -31.4168 H        24   G24       0.4186
    782 P           0.1810   -5.2350  -34.8850 P.3      25   G25       1.1662
    783 C5'         1.6770   -3.0840  -34.4940 C.3      25   G25       0.0558
    784 O5'         1.5740   -4.4540  -34.8780 O.3      25   G25      -0.4989
    785 C4'         3.0130   -2.8440  -33.8110 C.3      25   G25       0.1065
    786 O4'         3.4270   -3.9980  -33.0330 O.3      25   G25      -0.3548
    787 C3'         4.0660   -2.2690  -34.7320 C.3      25   G25       0.2022
    788 O3'         4.3930   -0.9150  -34.3960 O.3      25   G25      -0.5246
    789 C2'         5.2470   -3.1680  -34.2920 C.3      25   G25       0.0670
    790 O2'         6.2930   -2.3650  -33.8070 O.3      25   G25      -0.6139
    791 C1'         4.8390   -4.2130  -33.3030 C.3      25   G25       0.0191
    792 N1          8.5050   -7.7200  -34.0390 N.am     25   G25      -0.4787
    793 C2          8.5500   -6.4920  -33.3940 C.2      25   G25       0.7657
    794 N2          9.7750   -6.1220  -32.9490 N.pl3    25   G25      -0.9672
    795 N3          7.5090   -5.6350  -33.2820 N.2      25   G25      -0.6323
    796 C4          6.3380   -6.2000  -33.7100 C.ar     25   G25       0.1222
    797 C5          6.2240   -7.3890  -34.4000 C.ar     25   G25       0.1744
    798 C6          7.2900   -8.3520  -34.3640 C.2      25   G25       0.4770
    799 O6          7.2990   -9.4660  -34.9300 O.2      25   G25      -0.5597
    800 N7          4.9180   -7.5480  -34.8450 N.ar     25   G25      -0.5709
    801 C8          4.2970   -6.4400  -34.4710 C.ar     25   G25       0.1374
    802 N9          5.0980   -5.5940  -33.7690 N.ar     25   G25       0.0492
    803 OP1        -0.8730   -4.3500  -35.3780 O.co2    25   G25      -0.7760
    804 OP2         0.4360   -6.5530  -35.5630 O.co2    25   G25      -0.7760
    805 H5'         1.6042   -2.4529  -35.3797 H        25   G25       0.0679
    806 H5''        0.8683   -2.8382  -33.8058 H        25   G25       0.0679
    807 H4'         2.8200   -2.0615  -33.0772 H        25   G25       0.1174
    808 H3'         3.8147   -2.3914  -35.7856 H        25   G25       0.0615
    809 H2'         5.6145   -3.6831  -35.1795 H        25   G25       0.0972
    810 H1'         5.3954   -4.0503  -32.3799 H        25   G25       0.2006
    811 H1          9.3728   -8.1753  -34.2833 H        25   G25       0.3424
    812 H8          3.2626   -6.2299  -34.6995 H        25   G25       0.1640
    813 H21        10.5632   -6.7429  -33.0640 H        25   G25       0.4364
    814 H22         9.9000   -5.2249  -32.5021 H        25   G25       0.4364
    815 HO2'        5.9377   -1.5291  -33.4963 H        25   G25       0.4186
    816 P           4.9470    0.1410  -35.4350 P.3      26   U26       1.1662
    817 C5'         3.7320    1.8780  -33.8470 C.3      26   U26       0.0558
    818 O5'         4.1660    1.5110  -35.1470 O.3      26   U26      -0.4989
    819 C4'         3.0760    3.2340  -33.8020 C.3      26   U26       0.1065
    820 O4'         4.0070    4.2900  -34.1860 O.3      26   U26      -0.3548
    821 C3'         1.7850    3.2490  -34.6560 C.3      26   U26       0.2022
    822 O3'         0.6610    3.1610  -33.7640 O.3      26   U26      -0.5246
    823 C2'         1.9340    4.6920  -35.1810 C.3      26   U26       0.0670
    824 O2'         0.9100    5.5040  -34.5440 O.3      26   U26      -0.6139
    825 C1'         3.3190    5.3010  -34.9220 C.3      26   U26       0.0674
    826 N1          4.0100    5.4520  -36.2440 N.am     26   U26       0.0418
    827 C2          3.6660    6.5090  -37.0390 C.2      26   U26       0.4687
    828 O2          3.0460    7.4870  -36.5740 O.2      26   U26      -0.5477
    829 N3          4.3760    6.6050  -38.2410 N.am     26   U26      -0.3549
    830 C4          5.5260    5.8830  -38.5970 C.2      26   U26       0.5952
    831 O4          6.0100    5.9910  -39.7340 O.2      26   U26      -0.5761
    832 C5          5.6490    4.6490  -37.8030 C.2      26   U26      -0.3635
    833 C6          5.0540    4.5980  -36.5670 C.2      26   U26      -0.1126
    834 OP1         4.5480   -0.3250  -36.7970 O.co2    26   U26      -0.7760
    835 OP2         6.3850    0.4180  -35.1690 O.co2    26   U26      -0.7760
    836 H5'         4.5966    1.8892  -33.1833 H        26   U26       0.0679
    837 H5''        3.0228    1.1317  -33.4888 H        26   U26       0.0679
    838 H4'         2.7836    3.4190  -32.7684 H        26   U26       0.1174
    839 H3'         1.7754    2.4969  -35.4449 H        26   U26       0.0615
    840 H2'         1.7534    4.6889  -36.2559 H        26   U26       0.0972
    841 H1'         3.2610    6.2426  -34.3760 H        26   U26       0.1824
    842 H3          4.0246    7.2618  -38.9231 H        26   U26       0.3154
    843 H5          6.1967    3.8005  -38.1857 H        26   U26       0.1811
    844 H6          5.4034    3.8834  -35.8364 H        26   U26       0.2188
    845 HO2'        0.3134    4.9374  -34.0494 H        26   U26       0.4186
    846 P          -0.4660    2.0600  -34.0600 P.3      27   A27       1.1662
    847 C5'        -1.8350    3.8430  -35.4050 C.3      27   A27       0.0558
    848 O5'        -1.1040    2.6290  -35.4220 O.3      27   A27      -0.4989
    849 C4'        -1.6190    4.6210  -36.7170 C.3      27   A27       0.1065
    850 O4'        -0.2310    4.8330  -37.0000 O.3      27   A27      -0.3548
    851 C3'        -2.0910    3.8000  -37.9020 C.3      27   A27       0.2022
    852 O3'        -3.5100    3.8800  -38.0960 O.3      27   A27      -0.5246
    853 C2'        -1.3360    4.4820  -39.0430 C.3      27   A27       0.0670
    854 O2'        -1.9830    5.6690  -39.4530 O.3      27   A27      -0.6139
    855 C1'         0.0390    4.7100  -38.4240 C.3      27   A27       0.0394
    856 N1          3.2350    2.6840  -41.8350 N.ar     27   A27      -0.7615
    857 C2          2.5560    3.8440  -41.8000 C.ar     27   A27       0.5875
    858 N3          1.7290    4.3100  -40.8900 N.ar     27   A27      -0.6997
    859 C4          1.9240    3.6230  -39.7080 C.ar     27   A27       0.3053
    860 C5          2.6790    2.4690  -39.5360 C.ar     27   A27       0.0515
    861 C6          3.3330    1.9670  -40.7020 C.ar     27   A27       0.7009
    862 N6          4.0040    0.7970  -40.7220 N.pl3    27   A27      -0.9019
    863 N7          2.2540    1.7920  -38.3790 N.ar     27   A27      -0.6073
    864 C8          1.4880    2.6890  -37.7960 C.ar     27   A27       0.2006
    865 N9          0.9800    3.6240  -38.6850 N.ar     27   A27      -0.0251
    866 OP1        -1.5190    2.1630  -33.0060 O.co2    27   A27      -0.7760
    867 OP2         0.1220    0.7420  -34.3200 O.co2    27   A27      -0.7760
    868 H5'        -2.8960    3.6212  -35.2901 H        27   A27       0.0679
    869 H5''       -1.5014    4.4528  -34.5654 H        27   A27       0.0679
    870 H4'        -2.1475    5.5737  -36.6828 H        27   A27       0.1174
    871 H3'        -1.7755    2.7617  -37.7996 H        27   A27       0.0615
    872 H2'        -1.2505    3.7987  -39.8879 H        27   A27       0.0972
    873 H1'         0.4537    5.6466  -38.7967 H        27   A27       0.2007
    874 H2          2.7140    4.4922  -42.6493 H        27   A27       0.0473
    875 H8          1.2772    2.6962  -36.7368 H        27   A27       0.1553
    876 HO2'       -2.2242    5.5989  -40.3795 H        27   A27       0.4186
    877 H61         4.4374    0.4779  -41.5767 H        27   A27       0.4115
    878 H62         4.0730    0.2401  -39.8823 H        27   A27       0.4115
    879 P          -4.2200    2.7390  -38.9940 P.3      28   G28       1.1662
    880 C5'        -3.9980    4.3060  -41.1020 C.3      28   G28       0.0558
    881 O5'        -3.7240    3.0730  -40.4700 O.3      28   G28      -0.4989
    882 C4'        -3.3570    4.3680  -42.4550 C.3      28   G28       0.1065
    883 O4'        -1.9090    4.3000  -42.3320 O.3      28   G28      -0.3548
    884 C3'        -3.7270    3.2110  -43.3420 C.3      28   G28       0.2022
    885 O3'        -4.9550    3.4030  -44.0750 O.3      28   G28      -0.5246
    886 C2'        -2.5440    3.1790  -44.3330 C.3      28   G28       0.0670
    887 O2'        -2.7150    4.1230  -45.3730 O.3      28   G28      -0.6139
    888 C1'        -1.3780    3.5740  -43.4260 C.3      28   G28       0.0191
    889 N1          2.2320    0.1730  -44.8420 N.am     28   G28      -0.4787
    890 C2          1.5760    1.1730  -45.5820 C.2      28   G28       0.7657
    891 N2          2.1390    1.4870  -46.7670 N.pl3    28   G28      -0.9672
    892 N3          0.7910    2.1130  -44.9930 N.2      28   G28      -0.6323
    893 C4          0.3420    1.7120  -43.7680 C.ar     28   G28       0.1222
    894 C5          0.7510    0.6080  -43.0750 C.ar     28   G28       0.1744
    895 C6          1.7970   -0.2320  -43.5760 C.2      28   G28       0.4770
    896 O6          2.2520   -1.2600  -43.0500 O.2      28   G28      -0.5597
    897 N7          0.1850    0.6390  -41.8010 N.ar     28   G28      -0.5709
    898 C8         -0.7080    1.6060  -41.8650 C.ar     28   G28       0.1374
    899 N9         -0.6180    2.3540  -42.9840 N.ar     28   G28       0.0492
    900 OP1        -5.6700    3.0280  -38.9470 O.co2    28   G28      -0.7760
    901 OP2        -3.7430    1.4360  -38.5300 O.co2    28   G28      -0.7760
    902 H5'        -3.6094    5.1168  -40.4858 H        28   G28       0.0679
    903 H5''       -5.0764    4.4223  -41.2100 H        28   G28       0.0679
    904 H4'        -3.6348    5.3017  -42.9441 H        28   G28       0.1174
    905 H3'        -3.7672    2.2865  -42.7660 H        28   G28       0.0615
    906 H2'        -2.4011    2.1766  -44.7366 H        28   G28       0.0972
    907 H1'        -0.7041    4.2239  -43.9842 H        28   G28       0.2006
    908 H1          3.0481   -0.2694  -45.2399 H        28   G28       0.3424
    909 H8         -1.4431    1.7831  -41.0938 H        28   G28       0.1640
    910 H21         2.8652    0.9055  -47.1602 H        28   G28       0.4364
    911 H22         1.8319    2.3103  -47.2650 H        28   G28       0.4364
    912 HO2'       -1.9140    4.1668  -45.9003 H        28   G28       0.4186
    913 P          -6.0150    2.2020  -44.3080 P.3      29   U29       1.1662
    914 C5'        -4.7780    1.6500  -46.5760 C.3      29   U29       0.0558
    915 O5'        -5.2250    1.2170  -45.2980 O.3      29   U29      -0.4989
    916 C4'        -3.7000    0.6710  -47.0560 C.3      29   U29       0.1065
    917 O4'        -2.5510    0.7080  -46.1610 O.3      29   U29      -0.3548
    918 C3'        -4.2020   -0.7660  -47.0420 C.3      29   U29       0.2022
    919 O3'        -4.8360   -1.0670  -48.2830 O.3      29   U29      -0.5246
    920 C2'        -2.8740   -1.4810  -46.9300 C.3      29   U29       0.0670
    921 O2'        -2.2670   -1.6240  -48.1860 O.3      29   U29      -0.6139
    922 C1'        -2.0280   -0.5900  -46.0200 C.3      29   U29       0.0674
    923 N1         -2.1270   -1.0340  -44.5890 N.am     29   U29       0.0418
    924 C2         -1.3190   -2.0370  -44.1540 C.2      29   U29       0.4687
    925 O2         -0.5080   -2.6490  -44.8720 O.2      29   U29      -0.5477
    926 N3         -1.2930   -2.2480  -42.7840 N.am     29   U29      -0.3549
    927 C4         -2.1720   -1.6810  -41.8300 C.2      29   U29       0.5952
    928 O4         -2.1200   -2.0030  -40.6460 O.2      29   U29      -0.5761
    929 C5         -3.0690   -0.7220  -42.4140 C.2      29   U29      -0.3635
    930 C6         -2.8860   -0.3110  -43.7110 C.2      29   U29      -0.1126
    931 OP1        -7.2000    2.7260  -45.0030 O.co2    29   U29      -0.7760
    932 OP2        -6.1800    1.5470  -42.9660 O.co2    29   U29      -0.7760
    933 H5'        -5.6121    1.6550  -47.2776 H        29   U29       0.0679
    934 H5''       -4.3565    2.6522  -46.4983 H        29   U29       0.0679
    935 H4'        -3.3862    0.9387  -48.0649 H        29   U29       0.1174
    936 H3'        -4.8506   -0.9669  -46.1893 H        29   U29       0.0615
    937 H2'        -3.0141   -2.4590  -46.4695 H        29   U29       0.0972
    938 H1'        -0.9875   -0.6089  -46.3441 H        29   U29       0.1824
    939 H3         -0.5767   -2.8669  -42.4320 H        29   U29       0.3154
    940 H5         -3.8875   -0.3245  -41.8322 H        29   U29       0.1811
    941 H6         -3.3521    0.6041  -44.0454 H        29   U29       0.2188
    942 HO2'       -2.6236   -2.3980  -48.6280 H        29   U29       0.4186
    943 P          -5.9800   -2.2100  -48.3560 P.3      30   U30       1.1662
    944 C5'        -4.0800   -3.8900  -49.0360 C.3      30   U30       0.0558
    945 O5'        -5.0980   -3.5450  -48.0990 O.3      30   U30      -0.4989
    946 C4'        -3.6860   -5.3320  -48.9230 C.3      30   U30       0.1065
    947 O4'        -2.7160   -5.5240  -47.8740 O.3      30   U30      -0.3548
    948 C3'        -4.8100   -6.2700  -48.5250 C.3      30   U30       0.2022
    949 O3'        -5.6170   -6.5780  -49.6480 O.3      30   U30      -0.5246
    950 C2'        -3.9500   -7.5020  -48.1630 C.3      30   U30       0.0670
    951 O2'        -3.4380   -8.0820  -49.3910 O.3      30   U30      -0.6139
    952 C1'        -2.8690   -6.8390  -47.3430 C.3      30   U30       0.0674
    953 N1         -3.2740   -6.7700  -45.9010 N.am     30   U30       0.0418
    954 C2         -3.1980   -7.9480  -45.1510 C.2      30   U30       0.4687
    955 O2         -2.4640   -8.8890  -45.5170 O.2      30   U30      -0.5477
    956 N3         -3.7290   -7.9020  -43.8870 N.am     30   U30      -0.3549
    957 C4         -4.5060   -6.8820  -43.3450 C.2      30   U30       0.5952
    958 O4         -4.7960   -6.9120  -42.1350 O.2      30   U30      -0.5761
    959 C5         -4.5420   -5.6840  -44.1930 C.2      30   U30      -0.3635
    960 C6         -4.0030   -5.7210  -45.4020 C.2      30   U30      -0.1126
    961 OP1        -6.5660   -2.2350  -49.6970 O.co2    30   U30      -0.7760
    962 OP2        -6.8490   -1.9960  -47.1830 O.co2    30   U30      -0.7760
    963 H5'        -4.4503   -3.7034  -50.0440 H        30   U30       0.0679
    964 H5''       -3.2043   -3.2661  -48.8568 H        30   U30       0.0679
    965 H4'        -3.2606   -5.6632  -49.8703 H        30   U30       0.1174
    966 H3'        -5.3892   -5.8980  -47.6799 H        30   U30       0.0615
    967 H2'        -4.5125   -8.2289  -47.5771 H        30   U30       0.0972
    968 H1'        -1.9347   -7.3917  -47.4416 H        30   U30       0.1824
    969 H3         -3.5360   -8.6909  -43.2866 H        30   U30       0.3154
    970 H5         -5.0056   -4.7775  -43.8327 H        30   U30       0.1811
    971 H6         -4.1480   -4.8628  -46.0415 H        30   U30       0.2188
    972 HO2'       -2.9006   -8.8499  -49.1830 H        30   U30       0.4186
    973 P          -7.0040   -7.3430  -49.5910 P.3      31   G31       1.1662
    974 C5'        -8.0990   -9.0360  -47.9660 C.3      31   G31       0.0558
    975 O5'        -7.1130   -7.9920  -48.1560 O.3      31   G31      -0.4989
    976 C4'        -8.4950   -9.0420  -46.4970 C.3      31   G31       0.1065
    977 O4'        -8.9910   -7.7240  -46.1580 O.3      31   G31      -0.3548
    978 C3'        -9.4880  -10.1200  -46.1470 C.3      31   G31       0.2022
    979 O3'        -9.1810  -10.8500  -44.9620 O.3      31   G31      -0.5246
    980 C2'       -10.7400   -9.2890  -45.9180 C.3      31   G31       0.0670
    981 O2'       -11.4900   -9.6690  -44.7920 O.3      31   G31      -0.6139
    982 C1'       -10.3660   -7.8010  -45.8510 C.3      31   G31       0.0191
    983 N1        -13.9750   -4.2140  -46.2330 N.am     31   G31      -0.4787
    984 C2        -13.2320   -4.6180  -45.1300 C.2      31   G31       0.7657
    985 N2        -13.4050   -3.9340  -43.9880 N.pl3    31   G31      -0.9672
    986 N3        -12.1470   -5.4290  -45.2180 N.2      31   G31      -0.6323
    987 C4        -12.0040   -5.9940  -46.4410 C.ar     31   G31       0.1222
    988 C5        -12.7500   -5.7150  -47.5630 C.ar     31   G31       0.1744
    989 C6        -13.7550   -4.7030  -47.5390 C.2      31   G31       0.4770
    990 O6        -14.5820   -4.4800  -48.4400 O.2      31   G31      -0.5597
    991 N7        -12.1560   -6.2880  -48.6900 N.ar     31   G31      -0.5709
    992 C8        -11.2610   -7.0850  -48.1750 C.ar     31   G31       0.1374
    993 N9        -11.1920   -7.0480  -46.7940 N.ar     31   G31       0.0492
    994 OP1        -6.9730   -8.4520  -50.6060 O.co2    31   G31      -0.7760
    995 OP2        -8.0880   -6.3290  -49.7240 O.co2    31   G31      -0.7760
    996 H5'        -7.6733  -10.0016  -48.2388 H        31   G31       0.0679
    997 H5''       -8.9745   -8.8322  -48.5825 H        31   G31       0.0679
    998 H4'        -7.5932   -9.2183  -45.9107 H        31   G31       0.1174
    999 H3'        -9.6281  -10.7985  -46.9885 H        31   G31       0.0615
   1000 H2'       -11.3792   -9.4218  -46.7909 H        31   G31       0.0972
   1001 H1'       -10.5349   -7.4282  -44.8407 H        31   G31       0.2006
   1002 H1        -14.7101   -3.5357  -46.0930 H        31   G31       0.3424
   1003 H8        -10.6273   -7.7202  -48.7761 H        31   G31       0.1640
   1004 H21       -14.1316   -3.2359  -43.9188 H        31   G31       0.4364
   1005 H22       -12.8066   -4.1180  -43.1954 H        31   G31       0.4364
   1006 HO2'      -11.7124  -10.6008  -44.8546 H        31   G31       0.4186
   1007 P          -7.9190  -11.7800  -44.7630 P.3      32   U32       1.1662
   1008 C5'        -8.9350  -13.9820  -45.7730 C.3      32   U32       0.0558
   1009 O5'        -8.0790  -12.8840  -45.9690 O.3      32   U32      -0.4989
   1010 C4'        -8.3690  -15.2060  -46.4590 C.3      32   U32       0.1065
   1011 O4'        -7.1270  -15.5730  -45.8620 O.3      32   U32      -0.3548
   1012 C3'        -9.3580  -16.3870  -46.3790 C.3      32   U32       0.2022
   1013 O3'       -10.0810  -16.5700  -47.5950 O.3      32   U32      -0.5246
   1014 C2'        -8.3990  -17.5290  -46.1640 C.3      32   U32       0.0670
   1015 O2'        -8.0610  -18.1490  -47.4280 O.3      32   U32      -0.6139
   1016 C1'        -7.2110  -16.9620  -45.4310 C.3      32   U32       0.0674
   1017 N1         -7.4000  -16.9840  -43.9420 N.am     32   U32       0.0418
   1018 C2         -7.4250  -18.2490  -43.3460 C.2      32   U32       0.4687
   1019 O2         -6.9820  -19.2200  -43.9200 O.2      32   U32      -0.5477
   1020 N3         -7.4410  -18.1670  -41.9470 N.am     32   U32      -0.3549
   1021 C4         -7.8530  -17.0870  -41.1830 C.2      32   U32       0.5952
   1022 O4         -8.0630  -17.2060  -39.9520 O.2      32   U32      -0.5761
   1023 C5         -7.9760  -15.8410  -41.9270 C.2      32   U32      -0.3635
   1024 C6         -7.7430  -15.8660  -43.2670 C.2      32   U32      -0.1126
   1025 OP1        -8.1520  -12.5680  -43.5200 O.co2    32   U32      -0.7760
   1026 OP2        -6.7040  -11.0220  -45.0240 O.co2    32   U32      -0.7760
   1027 H5'        -9.9156  -13.7546  -46.1912 H        32   U32       0.0679
   1028 H5''       -9.0334  -14.1783  -44.7053 H        32   U32       0.0679
   1029 H4'        -8.1945  -14.9680  -47.5083 H        32   U32       0.1174
   1030 H3'       -10.0348  -16.2767  -45.5317 H        32   U32       0.0615
   1031 H2'        -8.8790  -18.2727  -45.5279 H        32   U32       0.0972
   1032 H1'        -6.3037  -17.4999  -45.7060 H        32   U32       0.1824
   1033 H3         -7.1184  -18.9805  -41.4428 H        32   U32       0.3154
   1034 H5         -8.2450  -14.9217  -41.4281 H        32   U32       0.1811
   1035 H6         -7.8373  -14.9431  -43.8200 H        32   U32       0.2188
   1036 HO2'       -8.0473  -19.1032  -47.3234 H        32   U32       0.4186
   1037 P         -11.6440  -17.0510  -47.5110 P.3      33   C33       1.1662
   1038 C5'       -10.8380  -19.4080  -48.1450 C.3      33   C33       0.0558
   1039 O5'       -11.4430  -18.6130  -47.1250 O.3      33   C33      -0.4989
   1040 C4'       -10.3550  -20.7490  -47.6070 C.3      33   C33       0.1065
   1041 O4'        -9.4790  -20.5550  -46.4660 O.3      33   C33      -0.3548
   1042 C3'       -11.5530  -21.5000  -46.9700 C.3      33   C33       0.2022
   1043 O3'       -12.3000  -22.1610  -47.9680 O.3      33   C33      -0.5246
   1044 C2'       -10.7910  -22.4560  -46.0830 C.3      33   C33       0.0670
   1045 O2'       -10.2590  -23.5710  -46.7880 O.3      33   C33      -0.6139
   1046 C1'        -9.7020  -21.5830  -45.5230 C.3      33   C33       0.0066
   1047 N1        -10.0690  -21.0880  -44.1740 N.am     33   C33      -0.0484
   1048 C2         -9.7900  -21.8580  -43.0620 C.2      33   C33       0.7538
   1049 O2         -9.1910  -22.9370  -43.1890 O.2      33   C33      -0.6252
   1050 N3        -10.0350  -21.3060  -41.8510 N.2      33   C33      -0.7584
   1051 C4        -10.4920  -20.0550  -41.6790 C.2      33   C33       0.8185
   1052 N4        -10.5980  -19.5890  -40.4200 N.pl3    33   C33      -0.9530
   1053 C5        -10.7290  -19.2350  -42.8240 C.2      33   C33      -0.5215
   1054 C6        -10.5690  -19.8000  -44.0110 C.2      33   C33       0.0053
   1055 OP1       -12.2220  -17.0030  -48.8580 O.co2    33   C33      -0.7760
   1056 OP2       -12.2040  -16.3980  -46.3290 O.co2    33   C33      -0.7760
   1057 H5'        -9.9864  -18.8657  -48.5559 H        33   C33       0.0679
   1058 H5''      -11.5649  -19.5833  -48.9381 H        33   C33       0.0679
   1059 H4'        -9.8757  -21.3441  -48.3843 H        33   C33       0.1174
   1060 H3'       -12.1791  -20.8267  -46.3845 H        33   C33       0.0615
   1061 H2'       -11.4361  -22.8038  -45.2761 H        33   C33       0.0972
   1062 H1'        -8.7922  -22.1771  -45.4376 H        33   C33       0.2029
   1063 H5        -11.0253  -18.2010  -42.7263 H        33   C33       0.1928
   1064 H6        -10.8386  -19.2359  -44.8916 H        33   C33       0.1958
   1065 H41       -10.3793  -20.1901  -39.6384 H        33   C33       0.4234
   1066 H42       -10.8964  -18.6379  -40.2573 H        33   C33       0.4234
   1067 HO2'      -10.3194  -24.3560  -46.2387 H        33   C33       0.4186
   1068 P         -13.8650  -22.4600  -47.7090 P.3      34   G34       1.1662
   1069 C5'       -12.9920  -24.8080  -47.1080 C.3      34   G34       0.0558
   1070 O5'       -13.7940  -23.6900  -46.6870 O.3      34   G34      -0.4989
   1071 C4'       -12.7460  -25.7640  -45.9470 C.3      34   G34       0.1065
   1072 O4'       -12.0060  -25.1340  -44.8920 O.3      34   G34      -0.3548
   1073 C3'       -14.1000  -26.2290  -45.3660 C.3      34   G34       0.2022
   1074 O3'       -14.5700  -27.3470  -46.0700 O.3      34   G34      -0.5246
   1075 C2'       -13.5900  -26.6210  -43.9550 C.3      34   G34       0.0670
   1076 O2'       -13.1490  -27.9950  -44.0140 O.3      34   G34      -0.6139
   1077 C1'       -12.4310  -25.6620  -43.6270 C.3      34   G34       0.0191
   1078 N1        -13.0040  -24.2290  -38.7130 N.am     34   G34      -0.4787
   1079 C2        -12.6280  -25.4610  -39.2610 C.2      34   G34       0.7657
   1080 N2        -12.0930  -26.3540  -38.4180 N.pl3    34   G34      -0.9672
   1081 N3        -12.6150  -25.7170  -40.5880 N.2      34   G34      -0.6323
   1082 C4        -13.0200  -24.6650  -41.3410 C.ar     34   G34       0.1222
   1083 C5        -13.4360  -23.4480  -40.8790 C.ar     34   G34       0.1744
   1084 C6        -13.4170  -23.1580  -39.4790 C.2      34   G34       0.4770
   1085 O6        -13.7980  -22.1020  -38.9330 O.2      34   G34      -0.5597
   1086 N7        -13.6310  -22.5980  -41.9770 N.ar     34   G34      -0.5709
   1087 C8        -13.3150  -23.3110  -43.0070 C.ar     34   G34       0.1374
   1088 N9        -12.9420  -24.5830  -42.7230 N.ar     34   G34       0.0492
   1089 OP1       -14.4450  -22.9730  -48.9740 O.co2    34   G34      -0.7760
   1090 OP2       -14.4240  -21.2900  -47.0320 O.co2    34   G34      -0.7760
   1091 H5'       -13.5110  -25.3401  -47.9053 H        34   G34       0.0679
   1092 H5''      -12.0354  -24.4435  -47.4825 H        34   G34       0.0679
   1093 H4'       -12.1921  -26.6312  -46.3065 H        34   G34       0.1174
   1094 H3'       -14.8337  -25.4236  -45.3315 H        34   G34       0.0615
   1095 H2'       -14.3888  -26.5123  -43.2214 H        34   G34       0.0972
   1096 H1'       -11.6148  -26.2031  -43.1483 H        34   G34       0.2006
   1097 H1        -12.9715  -24.1187  -37.7096 H        34   G34       0.3424
   1098 H8        -13.3456  -22.9241  -44.0149 H        34   G34       0.1640
   1099 H21       -12.0375  -26.1479  -37.4308 H        34   G34       0.4364
   1100 H22       -11.7447  -27.2343  -38.7699 H        34   G34       0.4364
   1101 HO2'      -13.7675  -28.5510  -43.5345 H        34   G34       0.4186
   1102 P         -16.1670  -27.7040  -46.1340 P.3      35   U35       1.1662
   1103 C5'       -16.1150  -29.4730  -44.2310 C.3      35   U35       0.0558
   1104 O5'       -16.5060  -28.1690  -44.6270 O.3      35   U35      -0.4989
   1105 C4'       -16.2330  -29.7020  -42.7450 C.3      35   U35       0.1065
   1106 O4'       -15.4560  -28.7530  -41.9750 O.3      35   U35      -0.3548
   1107 C3'       -17.6320  -29.5020  -42.2190 C.3      35   U35       0.2022
   1108 O3'       -18.5380  -30.5610  -42.5690 O.3      35   U35      -0.5246
   1109 C2'       -17.3830  -29.4010  -40.7370 C.3      35   U35       0.0670
   1110 O2'       -17.1550  -30.6530  -40.1200 O.3      35   U35      -0.6139
   1111 C1'       -16.1480  -28.4930  -40.7480 C.3      35   U35       0.0674
   1112 N1        -16.5880  -27.0780  -40.6620 N.am     35   U35       0.0418
   1113 C2        -16.9440  -26.5740  -39.4270 C.2      35   U35       0.4687
   1114 O2        -16.8860  -27.2430  -38.3840 O.2      35   U35      -0.5477
   1115 N3        -17.1790  -25.1920  -39.3940 N.am     35   U35      -0.3549
   1116 C4        -17.0780  -24.2990  -40.4530 C.2      35   U35       0.5952
   1117 O4        -17.4090  -23.0980  -40.3350 O.2      35   U35      -0.5761
   1118 C5        -16.7040  -24.9430  -41.7150 C.2      35   U35      -0.3635
   1119 C6        -16.5670  -26.2850  -41.7630 C.2      35   U35      -0.1126
   1120 OP1       -16.3010  -28.8950  -47.0010 O.co2    35   U35      -0.7760
   1121 OP2       -16.9190  -26.4580  -46.4240 O.co2    35   U35      -0.7760
   1122 H5'       -16.7491  -30.1958  -44.7444 H        35   U35       0.0679
   1123 H5''      -15.0801  -29.6367  -44.5314 H        35   U35       0.0679
   1124 H4'       -15.9014  -30.7133  -42.5095 H        35   U35       0.1174
   1125 H3'       -18.0246  -28.5536  -42.5857 H        35   U35       0.0615
   1126 H2'       -18.2162  -28.8921  -40.2523 H        35   U35       0.0972
   1127 H1'       -15.5043  -28.7329  -39.9017 H        35   U35       0.1824
   1128 H3        -17.4516  -24.8034  -38.5025 H        35   U35       0.3154
   1129 H5        -16.5390  -24.3478  -42.6009 H        35   U35       0.1811
   1130 H6        -16.4338  -26.7518  -42.7277 H        35   U35       0.2188
   1131 HO2'      -17.6506  -30.7007  -39.2992 H        35   U35       0.4186
   1132 P         -20.0660  -30.2210  -42.7890 P.3      36   A36       1.1662
   1133 C5'       -20.5740  -31.1750  -40.4340 C.3      36   A36       0.0558
   1134 O5'       -20.6520  -30.0030  -41.2940 O.3      36   A36      -0.4989
   1135 C4'       -20.6890  -30.7720  -38.9860 C.3      36   A36       0.1065
   1136 O4'       -19.6640  -29.8240  -38.5920 O.3      36   A36      -0.3548
   1137 C3'       -21.9720  -30.0480  -38.6840 C.3      36   A36       0.2022
   1138 O3'       -23.0500  -31.0140  -38.5530 O.3      36   A36      -0.5246
   1139 C2'       -21.6020  -29.5080  -37.2930 C.3      36   A36       0.0670
   1140 O2'       -21.5780  -30.5620  -36.3050 O.3      36   A36      -0.6139
   1141 C1'       -20.2060  -28.9690  -37.5520 C.3      36   A36       0.0394
   1142 N1        -20.8580  -24.0470  -36.2490 N.ar     36   A36      -0.7615
   1143 C2        -21.0230  -25.1840  -35.5610 C.ar     36   A36       0.5875
   1144 N3        -20.8860  -26.4370  -35.9700 N.ar     36   A36      -0.6997
   1145 C4        -20.7770  -26.5040  -37.3250 C.ar     36   A36       0.3053
   1146 C5        -20.6020  -25.4140  -38.1670 C.ar     36   A36       0.0515
   1147 C6        -20.7270  -24.1290  -37.5900 C.ar     36   A36       0.7009
   1148 N6        -20.6720  -22.9860  -38.3190 N.pl3    36   A36      -0.9019
   1149 N7        -20.3170  -25.8640  -39.4710 N.ar     36   A36      -0.6073
   1150 C8        -20.2550  -27.1400  -39.3620 C.ar     36   A36       0.2006
   1151 N9        -20.2930  -27.5850  -38.0670 N.ar     36   A36      -0.0251
   1152 OP1       -20.7940  -31.4020  -43.3240 O.co2    36   A36      -0.7760
   1153 OP2       -20.1780  -28.9490  -43.5500 O.co2    36   A36      -0.7760
   1154 H5'       -21.3867  -31.8575  -40.6825 H        36   A36       0.0679
   1155 H5''      -19.6198  -31.6770  -40.5940 H        36   A36       0.0679
   1156 H4'       -20.6195  -31.6601  -38.3578 H        36   A36       0.1174
   1157 H3'       -22.1937  -29.2581  -39.4017 H        36   A36       0.0615
   1158 H2'       -22.2789  -28.7081  -36.9929 H        36   A36       0.0972
   1159 H1'       -19.5953  -29.0138  -36.6503 H        36   A36       0.2007
   1160 H2        -21.3081  -25.0626  -34.5264 H        36   A36       0.0473
   1161 H8        -20.1798  -27.8022  -40.2119 H        36   A36       0.1553
   1162 H61       -20.0711  -22.3348  -37.8343 H        36   A36       0.4115
   1163 H62       -21.1485  -22.8161  -39.1932 H        36   A36       0.4115
   1164 HO2'      -22.0069  -30.2574  -35.5020 H        36   A36       0.4186
   1165 P         -24.5570  -30.6150  -38.9350 P.3      37   C37       1.1662
   1166 C5'       -24.8730  -30.0950  -36.3720 C.3      37   C37       0.0558
   1167 O5'       -24.9050  -29.5900  -37.7100 O.3      37   C37      -0.4989
   1168 C4'       -25.0430  -28.9960  -35.3570 C.3      37   C37       0.1065
   1169 O4'       -24.0310  -28.0120  -35.5290 O.3      37   C37      -0.3548
   1170 C3'       -26.3570  -28.2740  -35.4380 C.3      37   C37       0.2022
   1171 O3'       -27.3880  -28.9600  -34.7460 O.3      37   C37      -0.6541
   1172 C2'       -25.9590  -26.9570  -34.7390 C.3      37   C37       0.0670
   1173 O2'       -25.9940  -27.1920  -33.3210 O.3      37   C37      -0.6139
   1174 C1'       -24.5110  -26.7300  -35.1940 C.3      37   C37       0.0066
   1175 N1        -24.4840  -25.8380  -36.3970 N.am     37   C37      -0.0484
   1176 C2        -24.4410  -24.4830  -36.2110 C.2      37   C37       0.7538
   1177 O2        -24.3980  -24.0230  -35.0540 O.2      37   C37      -0.6252
   1178 N3        -24.2940  -23.6870  -37.2930 N.2      37   C37      -0.7584
   1179 C4        -24.3720  -24.1700  -38.5510 C.2      37   C37       0.8185
   1180 N4        -24.1680  -23.3290  -39.5720 N.pl3    37   C37      -0.9530
   1181 C5        -24.4460  -25.5910  -38.7460 C.2      37   C37      -0.5215
   1182 C6        -24.7750  -26.3440  -37.6470 C.2      37   C37       0.0053
   1183 OP1       -25.3750  -31.8470  -38.7720 O.co2    37   C37      -0.7760
   1184 OP2       -24.6090  -29.8820  -40.2050 O.co2    37   C37      -0.7760
   1185 H5'       -25.6795  -30.8177  -36.2481 H        37   C37       0.0679
   1186 H5''      -23.9186  -30.5931  -36.2017 H        37   C37       0.0679
   1187 H4'       -24.9437  -29.4256  -34.3602 H        37   C37       0.1174
   1188 H3'       -26.6383  -28.0939  -36.4756 H        37   C37       0.0615
   1189 H2'       -26.6091  -26.1316  -35.0292 H        37   C37       0.0972
   1190 H1'       -23.9195  -26.2997  -34.3859 H        37   C37       0.2029
   1191 H5        -24.2528  -26.0433  -39.7075 H        37   C37       0.1928
   1192 H6        -25.2495  -27.3078  -37.7578 H        37   C37       0.1958
   1193 H41       -24.0404  -22.3423  -39.3979 H        37   C37       0.4234
   1194 H42       -24.1416  -23.6816  -40.5181 H        37   C37       0.4234
   1195 HO3'      -28.2082  -28.4669  -34.8222 H        37   C37       0.4376
   1196 HO2'      -25.7501  -26.3879  -32.8568 H        37   C37       0.4186
@<TRIPOS>BOND
     1    1    2 1
     2    1    3 1
     3    3    5 1
     4    3    4 1
     5    4    9 1
     6    5    7 1
     7    5    6 1
     8    7    9 1
     9    7    8 1
    10    9   20 1
    11   10   11 1
    12   10   16 am
    13   11   12 2
    14   11   13 2
    15   13   14 1
    16   14   20 ar
    17   14   15 ar
    18   15   18 ar
    19   15   16 1
    20   16   17 2
    21   18   19 ar
    22   19   20 ar
    23   33   52 1
    24   33   51 1
    25   33   35 1
    26   34   36 1
    27   34   35 1
    28   36   38 1
    29   36   37 1
    30   37   42 1
    31   38   39 1
    32   38   40 1
    33   40   41 1
    34   40   42 1
    35   42   43 1
    36   43   50 1
    37   43   44 am
    38   44   46 am
    39   44   45 2
    40   46   47 am
    41   47   48 2
    42   47   49 1
    43   49   50 2
    44   33    6 1
    45   63   84 1
    46   63   83 1
    47   63   65 1
    48   64   66 1
    49   64   65 1
    50   66   67 1
    51   66   68 1
    52   67   72 1
    53   68   70 1
    54   68   69 1
    55   70   72 1
    56   70   71 1
    57   72   82 1
    58   73   78 ar
    59   73   74 ar
    60   74   75 ar
    61   75   76 ar
    62   76   77 ar
    63   76   82 ar
    64   77   78 ar
    65   77   80 ar
    66   78   79 1
    67   80   81 ar
    68   81   82 ar
    69   39   63 1
    70   96   98 1
    71   96  115 1
    72   96  114 1
    73   97   98 1
    74   97   99 1
    75   99  101 1
    76   99  100 1
    77  100  105 1
    78  101  103 1
    79  101  102 1
    80  103  104 1
    81  103  105 1
    82  105  106 1
    83  106  107 am
    84  106  113 1
    85  107  108 2
    86  107  109 1
    87  109  110 2
    88  110  112 2
    89  110  111 2
    90  112  113 2
    91   69   96 1
    92  127  148 1
    93  127  149 1
    94  127  129 1
    95  128  129 1
    96  128  130 1
    97  130  132 1
    98  130  131 1
    99  131  136 1
   100  132  134 1
   101  132  133 1
   102  134  136 1
   103  134  135 1
   104  136  147 1
   105  137  138 1
   106  137  143 am
   107  138  139 2
   108  138  140 2
   109  140  141 1
   110  141  147 ar
   111  141  142 ar
   112  142  145 ar
   113  142  143 1
   114  143  144 2
   115  145  146 ar
   116  146  147 ar
   117  102  127 1
   118  161  182 1
   119  161  181 1
   120  161  163 1
   121  162  164 1
   122  162  163 1
   123  164  165 1
   124  164  166 1
   125  165  170 1
   126  166  168 1
   127  166  167 1
   128  168  170 1
   129  168  169 1
   130  170  180 1
   131  171  176 ar
   132  171  172 ar
   133  172  173 ar
   134  173  174 ar
   135  174  175 ar
   136  174  180 ar
   137  175  176 ar
   138  175  178 ar
   139  176  177 1
   140  178  179 ar
   141  179  180 ar
   142  133  161 1
   143  194  215 1
   144  194  214 1
   145  194  196 1
   146  195  197 1
   147  195  196 1
   148  197  198 1
   149  197  199 1
   150  198  203 1
   151  199  201 1
   152  199  200 1
   153  201  203 1
   154  201  202 1
   155  203  213 1
   156  204  209 ar
   157  204  205 ar
   158  205  206 ar
   159  206  207 ar
   160  207  208 ar
   161  207  213 ar
   162  208  209 ar
   163  208  211 ar
   164  209  210 1
   165  211  212 ar
   166  212  213 ar
   167  167  194 1
   168  227  248 1
   169  227  249 1
   170  227  229 1
   171  228  229 1
   172  228  230 1
   173  230  232 1
   174  230  231 1
   175  231  236 1
   176  232  234 1
   177  232  233 1
   178  234  236 1
   179  234  235 1
   180  236  247 1
   181  237  238 1
   182  237  243 am
   183  238  239 2
   184  238  240 2
   185  240  241 1
   186  241  247 ar
   187  241  242 ar
   188  242  245 ar
   189  242  243 1
   190  243  244 2
   191  245  246 ar
   192  246  247 ar
   193  200  227 1
   194  261  282 1
   195  261  283 1
   196  261  263 1
   197  262  263 1
   198  262  264 1
   199  264  266 1
   200  264  265 1
   201  265  270 1
   202  266  268 1
   203  266  267 1
   204  268  270 1
   205  268  269 1
   206  270  281 1
   207  271  272 1
   208  271  277 am
   209  272  273 2
   210  272  274 2
   211  274  275 1
   212  275  281 ar
   213  275  276 ar
   214  276  279 ar
   215  276  277 1
   216  277  278 2
   217  279  280 ar
   218  280  281 ar
   219  233  261 1
   220  295  316 1
   221  295  315 1
   222  295  297 1
   223  296  298 1
   224  296  297 1
   225  298  299 1
   226  298  300 1
   227  299  304 1
   228  300  302 1
   229  300  301 1
   230  302  304 1
   231  302  303 1
   232  304  314 1
   233  305  310 ar
   234  305  306 ar
   235  306  307 ar
   236  307  308 ar
   237  308  309 ar
   238  308  314 ar
   239  309  310 ar
   240  309  312 ar
   241  310  311 1
   242  312  313 ar
   243  313  314 ar
   244  267  295 1
   245  328  349 1
   246  328  348 1
   247  328  330 1
   248  329  331 1
   249  329  330 1
   250  331  332 1
   251  331  333 1
   252  332  337 1
   253  333  335 1
   254  333  334 1
   255  335  337 1
   256  335  336 1
   257  337  347 1
   258  338  343 ar
   259  338  339 ar
   260  339  340 ar
   261  340  341 ar
   262  341  342 ar
   263  341  347 ar
   264  342  343 ar
   265  342  345 ar
   266  343  344 1
   267  345  346 ar
   268  346  347 ar
   269  301  328 1
   270  361  382 1
   271  361  383 1
   272  361  363 1
   273  362  363 1
   274  362  364 1
   275  364  366 1
   276  364  365 1
   277  365  370 1
   278  366  368 1
   279  366  367 1
   280  368  370 1
   281  368  369 1
   282  370  381 1
   283  371  372 1
   284  371  377 am
   285  372  373 2
   286  372  374 2
   287  374  375 1
   288  375  381 ar
   289  375  376 ar
   290  376  379 ar
   291  376  377 1
   292  377  378 2
   293  379  380 ar
   294  380  381 ar
   295  334  361 1
   296  395  416 1
   297  395  417 1
   298  395  397 1
   299  396  397 1
   300  396  398 1
   301  398  400 1
   302  398  399 1
   303  399  404 1
   304  400  402 1
   305  400  401 1
   306  402  404 1
   307  402  403 1
   308  404  415 1
   309  405  406 1
   310  405  411 am
   311  406  407 2
   312  406  408 2
   313  408  409 1
   314  409  415 ar
   315  409  410 ar
   316  410  413 ar
   317  410  411 1
   318  411  412 2
   319  413  414 ar
   320  414  415 ar
   321  367  395 1
   322  429  448 1
   323  429  447 1
   324  429  431 1
   325  430  432 1
   326  430  431 1
   327  432  434 1
   328  432  433 1
   329  433  438 1
   330  434  435 1
   331  434  436 1
   332  436  437 1
   333  436  438 1
   334  438  439 1
   335  439  446 1
   336  439  440 am
   337  440  442 am
   338  440  441 2
   339  442  443 am
   340  443  444 2
   341  443  445 1
   342  445  446 2
   343  401  429 1
   344  459  478 1
   345  459  477 1
   346  459  461 1
   347  460  462 1
   348  460  461 1
   349  462  464 1
   350  462  463 1
   351  463  468 1
   352  464  465 1
   353  464  466 1
   354  466  467 1
   355  466  468 1
   356  468  469 1
   357  469  476 1
   358  469  470 am
   359  470  472 am
   360  470  471 2
   361  472  473 am
   362  473  474 2
   363  473  475 1
   364  475  476 2
   365  435  459 1
   366  489  508 1
   367  489  507 1
   368  489  491 1
   369  490  492 1
   370  490  491 1
   371  492  494 1
   372  492  493 1
   373  493  498 1
   374  494  495 1
   375  494  496 1
   376  496  497 1
   377  496  498 1
   378  498  499 1
   379  499  506 1
   380  499  500 am
   381  500  502 am
   382  500  501 2
   383  502  503 am
   384  503  504 2
   385  503  505 1
   386  505  506 2
   387  465  489 1
   388  519  540 1
   389  519  541 1
   390  519  521 1
   391  520  521 1
   392  520  522 1
   393  522  524 1
   394  522  523 1
   395  523  528 1
   396  524  526 1
   397  524  525 1
   398  526  528 1
   399  526  527 1
   400  528  539 1
   401  529  530 1
   402  529  535 am
   403  530  531 2
   404  530  532 2
   405  532  533 1
   406  533  539 ar
   407  533  534 ar
   408  534  537 ar
   409  534  535 1
   410  535  536 2
   411  537  538 ar
   412  538  539 ar
   413  495  519 1
   414  553  574 1
   415  553  575 1
   416  553  555 1
   417  554  555 1
   418  554  556 1
   419  556  558 1
   420  556  557 1
   421  557  562 1
   422  558  560 1
   423  558  559 1
   424  560  562 1
   425  560  561 1
   426  562  573 1
   427  563  564 1
   428  563  569 am
   429  564  565 2
   430  564  566 2
   431  566  567 1
   432  567  573 ar
   433  567  568 ar
   434  568  571 ar
   435  568  569 1
   436  569  570 2
   437  571  572 ar
   438  572  573 ar
   439  525  553 1
   440  587  606 1
   441  587  605 1
   442  587  589 1
   443  588  590 1
   444  588  589 1
   445  590  592 1
   446  590  591 1
   447  591  596 1
   448  592  593 1
   449  592  594 1
   450  594  595 1
   451  594  596 1
   452  596  597 1
   453  597  604 1
   454  597  598 am
   455  598  600 am
   456  598  599 2
   457  600  601 am
   458  601  602 2
   459  601  603 1
   460  603  604 2
   461  559  587 1
   462  617  638 1
   463  617  637 1
   464  617  619 1
   465  618  620 1
   466  618  619 1
   467  620  621 1
   468  620  622 1
   469  621  626 1
   470  622  624 1
   471  622  623 1
   472  624  626 1
   473  624  625 1
   474  626  636 1
   475  627  632 ar
   476  627  628 ar
   477  628  629 ar
   478  629  630 ar
   479  630  631 ar
   480  630  636 ar
   481  631  632 ar
   482  631  634 ar
   483  632  633 1
   484  634  635 ar
   485  635  636 ar
   486  593  617 1
   487  650  669 1
   488  650  668 1
   489  650  652 1
   490  651  653 1
   491  651  652 1
   492  653  655 1
   493  653  654 1
   494  654  659 1
   495  655  656 1
   496  655  657 1
   497  657  658 1
   498  657  659 1
   499  659  660 1
   500  660  667 1
   501  660  661 am
   502  661  663 am
   503  661  662 2
   504  663  664 am
   505  664  665 2
   506  664  666 1
   507  666  667 2
   508  623  650 1
   509  680  701 1
   510  680  702 1
   511  680  682 1
   512  681  682 1
   513  681  683 1
   514  683  685 1
   515  683  684 1
   516  684  689 1
   517  685  687 1
   518  685  686 1
   519  687  689 1
   520  687  688 1
   521  689  700 1
   522  690  691 1
   523  690  696 am
   524  691  692 2
   525  691  693 2
   526  693  694 1
   527  694  700 ar
   528  694  695 ar
   529  695  698 ar
   530  695  696 1
   531  696  697 2
   532  698  699 ar
   533  699  700 ar
   534  656  680 1
   535  714  735 1
   536  714  736 1
   537  714  716 1
   538  715  716 1
   539  715  717 1
   540  717  719 1
   541  717  718 1
   542  718  723 1
   543  719  721 1
   544  719  720 1
   545  721  723 1
   546  721  722 1
   547  723  734 1
   548  724  725 1
   549  724  730 am
   550  725  726 2
   551  725  727 2
   552  727  728 1
   553  728  734 ar
   554  728  729 ar
   555  729  732 ar
   556  729  730 1
   557  730  731 2
   558  732  733 ar
   559  733  734 ar
   560  686  714 1
   561  748  769 1
   562  748  770 1
   563  748  750 1
   564  749  750 1
   565  749  751 1
   566  751  753 1
   567  751  752 1
   568  752  757 1
   569  753  755 1
   570  753  754 1
   571  755  757 1
   572  755  756 1
   573  757  768 1
   574  758  759 1
   575  758  764 am
   576  759  760 2
   577  759  761 2
   578  761  762 1
   579  762  768 ar
   580  762  763 ar
   581  763  766 ar
   582  763  764 1
   583  764  765 2
   584  766  767 ar
   585  767  768 ar
   586  720  748 1
   587  782  803 1
   588  782  804 1
   589  782  784 1
   590  783  784 1
   591  783  785 1
   592  785  787 1
   593  785  786 1
   594  786  791 1
   595  787  789 1
   596  787  788 1
   597  789  791 1
   598  789  790 1
   599  791  802 1
   600  792  793 1
   601  792  798 am
   602  793  794 2
   603  793  795 2
   604  795  796 1
   605  796  802 ar
   606  796  797 ar
   607  797  800 ar
   608  797  798 1
   609  798  799 2
   610  800  801 ar
   611  801  802 ar
   612  754  782 1
   613  816  835 1
   614  816  834 1
   615  816  818 1
   616  817  819 1
   617  817  818 1
   618  819  821 1
   619  819  820 1
   620  820  825 1
   621  821  822 1
   622  821  823 1
   623  823  824 1
   624  823  825 1
   625  825  826 1
   626  826  833 1
   627  826  827 am
   628  827  829 am
   629  827  828 2
   630  829  830 am
   631  830  831 2
   632  830  832 1
   633  832  833 2
   634  788  816 1
   635  846  867 1
   636  846  866 1
   637  846  848 1
   638  847  849 1
   639  847  848 1
   640  849  850 1
   641  849  851 1
   642  850  855 1
   643  851  853 1
   644  851  852 1
   645  853  855 1
   646  853  854 1
   647  855  865 1
   648  856  861 ar
   649  856  857 ar
   650  857  858 ar
   651  858  859 ar
   652  859  860 ar
   653  859  865 ar
   654  860  861 ar
   655  860  863 ar
   656  861  862 1
   657  863  864 ar
   658  864  865 ar
   659  822  846 1
   660  879  900 1
   661  879  901 1
   662  879  881 1
   663  880  881 1
   664  880  882 1
   665  882  884 1
   666  882  883 1
   667  883  888 1
   668  884  886 1
   669  884  885 1
   670  886  888 1
   671  886  887 1
   672  888  899 1
   673  889  890 1
   674  889  895 am
   675  890  891 2
   676  890  892 2
   677  892  893 1
   678  893  899 ar
   679  893  894 ar
   680  894  897 ar
   681  894  895 1
   682  895  896 2
   683  897  898 ar
   684  898  899 ar
   685  852  879 1
   686  913  932 1
   687  913  931 1
   688  913  915 1
   689  914  916 1
   690  914  915 1
   691  916  918 1
   692  916  917 1
   693  917  922 1
   694  918  919 1
   695  918  920 1
   696  920  921 1
   697  920  922 1
   698  922  923 1
   699  923  930 1
   700  923  924 am
   701  924  926 am
   702  924  925 2
   703  926  927 am
   704  927  928 2
   705  927  929 1
   706  929  930 2
   707  885  913 1
   708  943  962 1
   709  943  961 1
   710  943  945 1
   711  944  946 1
   712  944  945 1
   713  946  948 1
   714  946  947 1
   715  947  952 1
   716  948  949 1
   717  948  950 1
   718  950  951 1
   719  950  952 1
   720  952  953 1
   721  953  960 1
   722  953  954 am
   723  954  956 am
   724  954  955 2
   725  956  957 am
   726  957  958 2
   727  957  959 1
   728  959  960 2
   729  919  943 1
   730  973  994 1
   731  973  995 1
   732  973  975 1
   733  974  975 1
   734  974  976 1
   735  976  978 1
   736  976  977 1
   737  977  982 1
   738  978  980 1
   739  978  979 1
   740  980  982 1
   741  980  981 1
   742  982  993 1
   743  983  984 1
   744  983  989 am
   745  984  985 2
   746  984  986 2
   747  986  987 1
   748  987  993 ar
   749  987  988 ar
   750  988  991 ar
   751  988  989 1
   752  989  990 2
   753  991  992 ar
   754  992  993 ar
   755  949  973 1
   756 1007 1026 1
   757 1007 1025 1
   758 1007 1009 1
   759 1008 1010 1
   760 1008 1009 1
   761 1010 1012 1
   762 1010 1011 1
   763 1011 1016 1
   764 1012 1013 1
   765 1012 1014 1
   766 1014 1015 1
   767 1014 1016 1
   768 1016 1017 1
   769 1017 1024 1
   770 1017 1018 am
   771 1018 1020 am
   772 1018 1019 2
   773 1020 1021 am
   774 1021 1022 2
   775 1021 1023 1
   776 1023 1024 2
   777  979 1007 1
   778 1037 1039 1
   779 1037 1056 1
   780 1037 1055 1
   781 1038 1039 1
   782 1038 1040 1
   783 1040 1042 1
   784 1040 1041 1
   785 1041 1046 1
   786 1042 1044 1
   787 1042 1043 1
   788 1044 1045 1
   789 1044 1046 1
   790 1046 1047 1
   791 1047 1048 am
   792 1047 1054 1
   793 1048 1049 2
   794 1048 1050 1
   795 1050 1051 2
   796 1051 1053 2
   797 1051 1052 2
   798 1053 1054 2
   799 1013 1037 1
   800 1068 1089 1
   801 1068 1090 1
   802 1068 1070 1
   803 1069 1070 1
   804 1069 1071 1
   805 1071 1073 1
   806 1071 1072 1
   807 1072 1077 1
   808 1073 1075 1
   809 1073 1074 1
   810 1075 1077 1
   811 1075 1076 1
   812 1077 1088 1
   813 1078 1079 1
   814 1078 1084 am
   815 1079 1080 2
   816 1079 1081 2
   817 1081 1082 1
   818 1082 1088 ar
   819 1082 1083 ar
   820 1083 1086 ar
   821 1083 1084 1
   822 1084 1085 2
   823 1086 1087 ar
   824 1087 1088 ar
   825 1043 1068 1
   826 1102 1121 1
   827 1102 1120 1
   828 1102 1104 1
   829 1103 1105 1
   830 1103 1104 1
   831 1105 1107 1
   832 1105 1106 1
   833 1106 1111 1
   834 1107 1108 1
   835 1107 1109 1
   836 1109 1110 1
   837 1109 1111 1
   838 1111 1112 1
   839 1112 1119 1
   840 1112 1113 am
   841 1113 1115 am
   842 1113 1114 2
   843 1115 1116 am
   844 1116 1117 2
   845 1116 1118 1
   846 1118 1119 2
   847 1074 1102 1
   848 1132 1153 1
   849 1132 1152 1
   850 1132 1134 1
   851 1133 1135 1
   852 1133 1134 1
   853 1135 1136 1
   854 1135 1137 1
   855 1136 1141 1
   856 1137 1139 1
   857 1137 1138 1
   858 1139 1141 1
   859 1139 1140 1
   860 1141 1151 1
   861 1142 1147 ar
   862 1142 1143 ar
   863 1143 1144 ar
   864 1144 1145 ar
   865 1145 1146 ar
   866 1145 1151 ar
   867 1146 1147 ar
   868 1146 1149 ar
   869 1147 1148 1
   870 1149 1150 ar
   871 1150 1151 ar
   872 1108 1132 1
   873 1166 1167 1
   874 1166 1168 1
   875 1168 1170 1
   876 1168 1169 1
   877 1169 1174 1
   878 1170 1172 1
   879 1170 1171 1
   880 1172 1173 1
   881 1172 1174 1
   882 1174 1175 1
   883 1175 1182 1
   884 1175 1176 am
   885 1176 1177 2
   886 1176 1178 1
   887 1178 1179 2
   888 1179 1181 2
   889 1179 1180 2
   890 1181 1182 2
   891 1165 1167 1
   892 1165 1183 1
   893 1165 1184 1
   894 1138 1165 1
   895   21    1 1
   896   22    1 1
   897   23    3 1
   898   24    5 1
   899   25    7 1
   900   26    9 1
   901   27   10 1
   902   28   19 1
   903   53   34 1
   904   54   34 1
   905   55   36 1
   906   56   38 1
   907   57   40 1
   908   58   42 1
   909   59   46 1
   910   60   49 1
   911   61   50 1
   912   85   64 1
   913   86   64 1
   914   87   66 1
   915   88   68 1
   916   89   70 1
   917   90   72 1
   918   91   74 1
   919   92   81 1
   920  116   97 1
   921  117   97 1
   922  118   99 1
   923  119  101 1
   924  120  103 1
   925  121  105 1
   926  122  112 1
   927  123  113 1
   928  150  128 1
   929  151  128 1
   930  152  130 1
   931  153  132 1
   932  154  134 1
   933  155  136 1
   934  156  137 1
   935  157  146 1
   936  183  162 1
   937  184  162 1
   938  185  164 1
   939  186  166 1
   940  187  168 1
   941  188  170 1
   942  189  172 1
   943  190  179 1
   944  216  195 1
   945  217  195 1
   946  218  197 1
   947  219  199 1
   948  220  201 1
   949  221  203 1
   950  222  205 1
   951  223  212 1
   952  250  228 1
   953  251  228 1
   954  252  230 1
   955  253  232 1
   956  254  234 1
   957  255  236 1
   958  256  237 1
   959  257  246 1
   960  284  262 1
   961  285  262 1
   962  286  264 1
   963  287  266 1
   964  288  268 1
   965  289  270 1
   966  290  271 1
   967  291  280 1
   968  317  296 1
   969  318  296 1
   970  319  298 1
   971  320  300 1
   972  321  302 1
   973  322  304 1
   974  323  306 1
   975  324  313 1
   976  350  329 1
   977  351  329 1
   978  352  331 1
   979  353  333 1
   980  354  335 1
   981  355  337 1
   982  356  339 1
   983  357  346 1
   984  384  362 1
   985  385  362 1
   986  386  364 1
   987  387  366 1
   988  388  368 1
   989  389  370 1
   990  390  371 1
   991  391  380 1
   992  418  396 1
   993  419  396 1
   994  420  398 1
   995  421  400 1
   996  422  402 1
   997  423  404 1
   998  424  405 1
   999  425  414 1
  1000  449  430 1
  1001  450  430 1
  1002  451  432 1
  1003  452  434 1
  1004  453  436 1
  1005  454  438 1
  1006  455  442 1
  1007  456  445 1
  1008  457  446 1
  1009  479  460 1
  1010  480  460 1
  1011  481  462 1
  1012  482  464 1
  1013  483  466 1
  1014  484  468 1
  1015  485  472 1
  1016  486  475 1
  1017  487  476 1
  1018  509  490 1
  1019  510  490 1
  1020  511  492 1
  1021  512  494 1
  1022  513  496 1
  1023  514  498 1
  1024  515  502 1
  1025  516  505 1
  1026  517  506 1
  1027  542  520 1
  1028  543  520 1
  1029  544  522 1
  1030  545  524 1
  1031  546  526 1
  1032  547  528 1
  1033  548  529 1
  1034  549  538 1
  1035  576  554 1
  1036  577  554 1
  1037  578  556 1
  1038  579  558 1
  1039  580  560 1
  1040  581  562 1
  1041  582  563 1
  1042  583  572 1
  1043  607  588 1
  1044  608  588 1
  1045  609  590 1
  1046  610  592 1
  1047  611  594 1
  1048  612  596 1
  1049  613  600 1
  1050  614  603 1
  1051  615  604 1
  1052  639  618 1
  1053  640  618 1
  1054  641  620 1
  1055  642  622 1
  1056  643  624 1
  1057  644  626 1
  1058  645  628 1
  1059  646  635 1
  1060  670  651 1
  1061  671  651 1
  1062  672  653 1
  1063  673  655 1
  1064  674  657 1
  1065  675  659 1
  1066  676  663 1
  1067  677  666 1
  1068  678  667 1
  1069  703  681 1
  1070  704  681 1
  1071  705  683 1
  1072  706  685 1
  1073  707  687 1
  1074  708  689 1
  1075  709  690 1
  1076  710  699 1
  1077  737  715 1
  1078  738  715 1
  1079  739  717 1
  1080  740  719 1
  1081  741  721 1
  1082  742  723 1
  1083  743  724 1
  1084  744  733 1
  1085  771  749 1
  1086  772  749 1
  1087  773  751 1
  1088  774  753 1
  1089  775  755 1
  1090  776  757 1
  1091  777  758 1
  1092  778  767 1
  1093  805  783 1
  1094  806  783 1
  1095  807  785 1
  1096  808  787 1
  1097  809  789 1
  1098  810  791 1
  1099  811  792 1
  1100  812  801 1
  1101  836  817 1
  1102  837  817 1
  1103  838  819 1
  1104  839  821 1
  1105  840  823 1
  1106  841  825 1
  1107  842  829 1
  1108  843  832 1
  1109  844  833 1
  1110  868  847 1
  1111  869  847 1
  1112  870  849 1
  1113  871  851 1
  1114  872  853 1
  1115  873  855 1
  1116  874  857 1
  1117  875  864 1
  1118  902  880 1
  1119  903  880 1
  1120  904  882 1
  1121  905  884 1
  1122  906  886 1
  1123  907  888 1
  1124  908  889 1
  1125  909  898 1
  1126  933  914 1
  1127  934  914 1
  1128  935  916 1
  1129  936  918 1
  1130  937  920 1
  1131  938  922 1
  1132  939  926 1
  1133  940  929 1
  1134  941  930 1
  1135  963  944 1
  1136  964  944 1
  1137  965  946 1
  1138  966  948 1
  1139  967  950 1
  1140  968  952 1
  1141  969  956 1
  1142  970  959 1
  1143  971  960 1
  1144  996  974 1
  1145  997  974 1
  1146  998  976 1
  1147  999  978 1
  1148 1000  980 1
  1149 1001  982 1
  1150 1002  983 1
  1151 1003  992 1
  1152 1027 1008 1
  1153 1028 1008 1
  1154 1029 1010 1
  1155 1030 1012 1
  1156 1031 1014 1
  1157 1032 1016 1
  1158 1033 1020 1
  1159 1034 1023 1
  1160 1035 1024 1
  1161 1057 1038 1
  1162 1058 1038 1
  1163 1059 1040 1
  1164 1060 1042 1
  1165 1061 1044 1
  1166 1062 1046 1
  1167 1063 1053 1
  1168 1064 1054 1
  1169 1091 1069 1
  1170 1092 1069 1
  1171 1093 1071 1
  1172 1094 1073 1
  1173 1095 1075 1
  1174 1096 1077 1
  1175 1097 1078 1
  1176 1098 1087 1
  1177 1122 1103 1
  1178 1123 1103 1
  1179 1124 1105 1
  1180 1125 1107 1
  1181 1126 1109 1
  1182 1127 1111 1
  1183 1128 1115 1
  1184 1129 1118 1
  1185 1130 1119 1
  1186 1154 1133 1
  1187 1155 1133 1
  1188 1156 1135 1
  1189 1157 1137 1
  1190 1158 1139 1
  1191 1159 1141 1
  1192 1160 1143 1
  1193 1161 1150 1
  1194 1185 1166 1
  1195 1186 1166 1
  1196 1187 1168 1
  1197 1188 1170 1
  1198 1189 1172 1
  1199 1190 1174 1
  1200 1191 1181 1
  1201 1192 1182 1
  1202   29   12 1
  1203   30   12 1
  1204  124  111 1
  1205  125  111 1
  1206  158  139 1
  1207  159  139 1
  1208  258  239 1
  1209  259  239 1
  1210  292  273 1
  1211  293  273 1
  1212  392  373 1
  1213  393  373 1
  1214  426  407 1
  1215  427  407 1
  1216  550  531 1
  1217  551  531 1
  1218  584  565 1
  1219  585  565 1
  1220  711  692 1
  1221  712  692 1
  1222  745  726 1
  1223  746  726 1
  1224  779  760 1
  1225  780  760 1
  1226  813  794 1
  1227  814  794 1
  1228  910  891 1
  1229  911  891 1
  1230 1004  985 1
  1231 1005  985 1
  1232 1065 1052 1
  1233 1066 1052 1
  1234 1099 1080 1
  1235 1100 1080 1
  1236 1193 1180 1
  1237 1194 1180 1
  1238  815  790 1
  1239  845  824 1
  1240  679  658 1
  1241  713  688 1
  1242  616  595 1
  1243  428  403 1
  1244  781  756 1
  1245  488  467 1
  1246  552  527 1
  1247  747  722 1
  1248 1036 1015 1
  1249  260  235 1
  1250   31    8 1
  1251 1067 1045 1
  1252 1131 1110 1
  1253  586  561 1
  1254 1101 1076 1
  1255  294  269 1
  1256  876  854 1
  1257   93   71 1
  1258  325  303 1
  1259  358  336 1
  1260  191  169 1
  1261  160  135 1
  1262  942  921 1
  1263  359  344 1
  1264  360  344 1
  1265  224  210 1
  1266  225  210 1
  1267  877  862 1
  1268  878  862 1
  1269  326  311 1
  1270  327  311 1
  1271  192  177 1
  1272  193  177 1
  1273  647  633 1
  1274  648  633 1
  1275 1162 1148 1
  1276 1163 1148 1
  1277   94   79 1
  1278   95   79 1
  1279  912  887 1
  1280  126  104 1
  1281  458  437 1
  1282  649  625 1
  1283  972  951 1
  1284  518  497 1
  1285 1006  981 1
  1286  226  202 1
  1287  394  369 1
  1288   62   41 1
  1289 1195 1171 1
  1290 1164 1140 1
  1291 1196 1173 1
  1292   32    2 1
@<TRIPOS>SUBSTRUCTURE
     1   G1        3 RESIDUE           4 A       G     1 ROOT
     2   U2       36 RESIDUE           4 A       U     2
     3   A3       66 RESIDUE           4 A       A     2
     4   C4       99 RESIDUE           4 A       C     2
     5   G5      130 RESIDUE           4 A       G     2
     6   A6      164 RESIDUE           4 A       A     2
     7   A7      197 RESIDUE           4 A       A     2
     8   G8      230 RESIDUE           4 A       G     2
     9   G9      264 RESIDUE           4 A       G     2
    10   A10     298 RESIDUE           4 A       A     2
    11   A11     331 RESIDUE           4 A       A     2
    12   G12     364 RESIDUE           4 A       G     2
    13   G13     398 RESIDUE           4 A       G     2
    14   U14     432 RESIDUE           4 A       U     2
    15   U15     462 RESIDUE           4 A       U     2
    16   U16     492 RESIDUE           4 A       U     2
    17   G17     522 RESIDUE           4 A       G     2
    18   G18     556 RESIDUE           4 A       G     2
    19   U19     590 RESIDUE           4 A       U     2
    20   A20     620 RESIDUE           4 A       A     2
    21   U21     653 RESIDUE           4 A       U     2
    22   G22     683 RESIDUE           4 A       G     2
    23   G23     717 RESIDUE           4 A       G     2
    24   G24     751 RESIDUE           4 A       G     2
    25   G25     785 RESIDUE           4 A       G     2
    26   U26     819 RESIDUE           4 A       U     2
    27   A27     849 RESIDUE           4 A       A     2
    28   G28     882 RESIDUE           4 A       G     2
    29   U29     916 RESIDUE           4 A       U     2
    30   U30     946 RESIDUE           4 A       U     2
    31   G31     976 RESIDUE           4 A       G     2
    32   U32    1010 RESIDUE           4 A       U     2
    33   C33    1040 RESIDUE           4 A       C     2
    34   G34    1071 RESIDUE           4 A       G     2
    35   U35    1105 RESIDUE           4 A       U     2
    36   A36    1135 RESIDUE           4 A       A     2
    37   C37    1168 RESIDUE           4 A       C     1
