@<TRIPOS>MOLECULE
23_Ding_3.pdb
1196 1292 37 0 0
NUCLEIC_ACID
AMBER ff14SB


@<TRIPOS>ATOM
      1 C5'       -19.5560  -12.8630  -43.6950 C.3       1   G1        0.0558
      2 O5'       -19.8640  -11.9430  -42.6090 O.3       1   G1       -0.6223
      3 C4'       -20.8200  -13.7330  -43.9510 C.3       1   G1        0.1065
      4 O4'       -20.6750  -14.5430  -45.1210 O.3       1   G1       -0.3548
      5 C3'       -20.9330  -14.7600  -42.8250 C.3       1   G1        0.2022
      6 O3'       -21.7220  -14.1900  -41.7520 O.3       1   G1       -0.5246
      7 C2'       -21.7820  -15.8390  -43.5230 C.3       1   G1        0.0670
      8 O2'       -23.1560  -15.5350  -43.4470 O.3       1   G1       -0.6139
      9 C1'       -21.3150  -15.8160  -44.9810 C.3       1   G1        0.0191
     10 N1        -20.7220  -20.6270  -46.6220 N.am      1   G1       -0.4787
     11 C2        -21.8780  -19.9520  -46.1940 C.2       1   G1        0.7657
     12 N2        -23.0280  -20.6620  -46.2510 N.pl3     1   G1       -0.9672
     13 N3        -21.9020  -18.6850  -45.7750 N.2       1   G1       -0.6323
     14 C4        -20.6330  -18.1650  -45.6380 C.ar      1   G1        0.1222
     15 C5        -19.4430  -18.7750  -45.9550 C.ar      1   G1        0.1744
     16 C6        -19.4390  -20.1570  -46.3540 C.2       1   G1        0.4770
     17 O6        -18.4410  -20.8560  -46.6220 O.2       1   G1       -0.5597
     18 N7        -18.3660  -17.9450  -45.6390 N.ar      1   G1       -0.5709
     19 C8        -18.9500  -16.7980  -45.3150 C.ar      1   G1        0.1374
     20 N9        -20.3180  -16.8820  -45.2540 N.ar      1   G1        0.0492
     21 H5'       -18.7174  -13.5004  -43.4148 H         1   G1        0.0679
     22 H5''      -19.3070  -12.3007  -44.5950 H         1   G1        0.0679
     23 H4'       -21.7161  -13.1153  -44.0100 H         1   G1        0.1174
     24 H3'       -19.9647  -15.1317  -42.4897 H         1   G1        0.0615
     25 H2'       -21.5874  -16.8160  -43.0806 H         1   G1        0.0972
     26 H1'       -22.1639  -15.8982  -45.6598 H         1   G1        0.2006
     27 H1        -20.8258  -21.4855  -47.1438 H         1   G1        0.3424
     28 H8        -18.4022  -15.8882  -45.1187 H         1   G1        0.1640
     29 H21       -23.0157  -21.6180  -46.5766 H         1   G1        0.4364
     30 H22       -23.8990  -20.2361  -45.9679 H         1   G1        0.4364
     31 HO2'      -23.6381  -16.3056  -43.1380 H         1   G1        0.4186
     32 HO5'      -19.1283  -11.4140  -42.2919 H         1   G1        0.4295
     33 P         -21.4330  -14.5550  -40.2320 P.3       2   U2        1.1662
     34 C5'       -23.3460  -16.3330  -39.8650 C.3       2   U2        0.0558
     35 O5'       -21.9850  -16.0720  -40.1650 O.3       2   U2       -0.4989
     36 C4'       -23.6270  -17.7980  -40.3030 C.3       2   U2        0.1065
     37 O4'       -22.9650  -18.0910  -41.5360 O.3       2   U2       -0.3548
     38 C3'       -22.9910  -18.7770  -39.2970 C.3       2   U2        0.2022
     39 O3'       -23.8600  -18.9640  -38.1990 O.3       2   U2       -0.5246
     40 C2'       -22.9210  -20.0160  -40.2080 C.3       2   U2        0.0670
     41 O2'       -24.2200  -20.6710  -40.1380 O.3       2   U2       -0.6139
     42 C1'       -22.6710  -19.4980  -41.5860 C.3       2   U2        0.0674
     43 N1        -21.2570  -19.7600  -41.9750 N.am      2   U2        0.0418
     44 C2        -20.9730  -20.9410  -42.6170 C.2       2   U2        0.4687
     45 O2        -21.8300  -21.7730  -42.8890 O.2       2   U2       -0.5477
     46 N3        -19.6090  -21.1520  -42.9250 N.am      2   U2       -0.3549
     47 C4        -18.6020  -20.1720  -42.8540 C.2       2   U2        0.5952
     48 O4        -17.4400  -20.4820  -43.1860 O.2       2   U2       -0.5761
     49 C5        -18.9970  -18.9840  -42.1350 C.2       2   U2       -0.3635
     50 C6        -20.2730  -18.8610  -41.6420 C.2       2   U2       -0.1126
     51 OP1       -22.3110  -13.7250  -39.3600 O.co2     2   U2       -0.7760
     52 OP2       -19.9910  -14.5240  -39.9790 O.co2     2   U2       -0.7760
     53 H5'       -23.9900  -15.6466  -40.4147 H         2   U2        0.0679
     54 H5''      -23.5175  -16.2261  -38.7939 H         2   U2        0.0679
     55 H4'       -24.6989  -17.9759  -40.3891 H         2   U2        0.1174
     56 H3'       -22.0010  -18.4486  -38.9806 H         2   U2        0.0615
     57 H2'       -22.1247  -20.6901  -39.8923 H         2   U2        0.0972
     58 H1'       -23.3427  -19.9888  -42.2903 H         2   U2        0.1824
     59 H3        -19.3363  -22.0790  -43.2190 H         2   U2        0.3154
     60 H5        -18.2844  -18.1867  -41.9838 H         2   U2        0.1811
     61 H6        -20.5075  -18.0411  -40.9793 H         2   U2        0.2188
     62 HO2'      -24.2155  -21.4522  -40.6960 H         2   U2        0.4186
     63 P         -23.3820  -19.1920  -36.6880 P.3       3   A3        1.1662
     64 C5'       -23.9490  -21.7760  -36.6680 C.3       3   A3        0.0558
     65 O5'       -22.9270  -20.7550  -36.6940 O.3       3   A3       -0.4989
     66 C4'       -23.2950  -23.1710  -36.6790 C.3       3   A3        0.1065
     67 O4'       -22.7670  -23.4700  -37.9840 O.3       3   A3       -0.3548
     68 C3'       -21.8940  -23.1260  -36.0700 C.3       3   A3        0.2022
     69 O3'       -21.9760  -22.9800  -34.6420 O.3       3   A3       -0.5246
     70 C2'       -21.3760  -24.5270  -36.3900 C.3       3   A3        0.0670
     71 O2'       -22.2400  -25.5570  -35.9640 O.3       3   A3       -0.6139
     72 C1'       -21.5740  -24.2210  -37.8700 C.3       3   A3        0.0394
     73 N1        -17.0990  -24.8450  -40.3010 N.ar      3   A3       -0.7615
     74 C2        -17.9590  -25.7160  -39.7470 C.ar      3   A3        0.5875
     75 N3        -19.0910  -25.4910  -39.0950 N.ar      3   A3       -0.6997
     76 C4        -19.2620  -24.1440  -38.9070 C.ar      3   A3        0.3053
     77 C5        -18.5030  -23.1330  -39.4630 C.ar      3   A3        0.0515
     78 C6        -17.4450  -23.5270  -40.3040 C.ar      3   A3        0.7009
     79 N6        -16.5210  -22.6600  -40.7950 N.pl3     3   A3       -0.9019
     80 N7        -19.1120  -21.8800  -39.2370 N.ar      3   A3       -0.6073
     81 C8        -20.1420  -22.1980  -38.4620 C.ar      3   A3        0.2006
     82 N9        -20.4180  -23.5300  -38.4240 N.ar      3   A3       -0.0251
     83 OP1       -24.5730  -19.1010  -35.8070 O.co2     3   A3       -0.7760
     84 OP2       -22.1620  -18.3940  -36.4520 O.co2     3   A3       -0.7760
     85 H5'       -24.5483  -21.6648  -35.7643 H         3   A3        0.0679
     86 H5''      -24.5899  -21.6694  -37.5432 H         3   A3        0.0679
     87 H4'       -23.9284  -23.9577  -36.2692 H         3   A3        0.1174
     88 H3'       -21.2773  -22.3503  -36.5239 H         3   A3        0.0615
     89 H2'       -20.3344  -24.6842  -36.1100 H         3   A3        0.0972
     90 H1'       -21.7043  -25.1621  -38.4043 H         3   A3        0.2007
     91 H2        -17.6870  -26.7563  -39.8481 H         3   A3        0.0473
     92 H8        -20.7108  -21.4642  -37.9103 H         3   A3        0.1553
     93 H61       -15.9617  -22.7500  -41.6311 H         3   A3        0.4115
     94 H62       -16.3750  -21.8189  -40.2553 H         3   A3        0.4115
     95 HO2'      -21.7251  -26.3372  -35.7453 H         3   A3        0.4186
     96 P         -20.8650  -22.2080  -33.7760 P.3       4   C4        1.1662
     97 C5'       -20.1170  -24.6120  -33.1050 C.3       4   C4        0.0558
     98 O5'       -19.7240  -23.3420  -33.6610 O.3       4   C4       -0.4989
     99 C4'       -19.1960  -25.6870  -33.6500 C.3       4   C4        0.1065
    100 O4'       -19.0980  -25.7160  -35.0510 O.3       4   C4       -0.3548
    101 C3'       -17.7910  -25.5340  -33.1000 C.3       4   C4        0.2022
    102 O3'       -17.6320  -26.1400  -31.8330 O.3       4   C4       -0.5246
    103 C2'       -16.9850  -26.2290  -34.1900 C.3       4   C4        0.0670
    104 O2'       -16.9240  -27.6240  -33.9290 O.3       4   C4       -0.6139
    105 C1'       -17.7770  -26.0110  -35.5080 C.3       4   C4        0.0066
    106 N1        -17.2040  -24.7970  -36.1810 N.am      4   C4       -0.0484
    107 C2        -16.0060  -24.9390  -36.8380 C.2       4   C4        0.7538
    108 O2        -15.6000  -26.0960  -37.0580 O.2       4   C4       -0.6252
    109 N3        -15.3990  -23.8310  -37.3670 N.2       4   C4       -0.7584
    110 C4        -15.8900  -22.6030  -37.0890 C.2       4   C4        0.8185
    111 N4        -15.3250  -21.5030  -37.6480 N.pl3     4   C4       -0.9530
    112 C5        -16.9460  -22.4430  -36.1050 C.2       4   C4       -0.5215
    113 C6        -17.7290  -23.5470  -35.9230 C.2       4   C4        0.0053
    114 OP1       -21.4080  -21.9310  -32.4440 O.co2     4   C4       -0.7760
    115 OP2       -20.3300  -21.0560  -34.5770 O.co2     4   C4       -0.7760
    116 H5'       -20.0373  -24.5771  -32.0185 H         4   C4        0.0679
    117 H5''      -21.1458  -24.8331  -33.3893 H         4   C4        0.0679
    118 H4'       -19.5796  -26.6531  -33.3220 H         4   C4        0.1174
    119 H3'       -17.5209  -24.4793  -33.0482 H         4   C4        0.0615
    120 H2'       -15.9841  -25.8037  -34.2637 H         4   C4        0.0972
    121 H1'       -17.7516  -26.8893  -36.1531 H         4   C4        0.2029
    122 H5        -17.1000  -21.5234  -35.5601 H         4   C4        0.1928
    123 H6        -18.7481  -23.4430  -35.5809 H         4   C4        0.1958
    124 H41       -14.5630  -21.6038  -38.3032 H         4   C4        0.4234
    125 H42       -15.6667  -20.5831  -37.4088 H         4   C4        0.4234
    126 HO2'      -16.4368  -27.7769  -33.1161 H         4   C4        0.4186
    127 P         -16.8820  -25.2720  -30.6670 P.3       5   G5        1.1662
    128 C5'       -14.7020  -26.6960  -30.6740 C.3       5   G5        0.0558
    129 O5'       -15.3160  -25.4760  -31.0820 O.3       5   G5       -0.4989
    130 C4'       -13.4100  -26.8910  -31.4100 C.3       5   G5        0.1065
    131 O4'       -13.5070  -26.8770  -32.8170 O.3       5   G5       -0.3548
    132 C3'       -12.3080  -25.9160  -30.9440 C.3       5   G5        0.2022
    133 O3'       -11.6150  -26.4230  -29.8010 O.3       5   G5       -0.5246
    134 C2'       -11.3990  -26.0640  -32.1900 C.3       5   G5        0.0670
    135 O2'       -10.5630  -27.2050  -32.0730 O.3       5   G5       -0.6139
    136 C1'       -12.3570  -26.2310  -33.4010 C.3       5   G5        0.0191
    137 N1        -10.6340  -22.3810  -36.2870 N.am      5   G5       -0.4787
    138 C2        -10.2400  -23.7260  -36.2880 C.2       5   G5        0.7657
    139 N2         -9.0110  -23.9700  -36.7380 N.pl3     5   G5       -0.9672
    140 N3        -10.8920  -24.6940  -35.5980 N.2       5   G5       -0.6323
    141 C4        -11.8760  -24.1780  -34.7850 C.ar      5   G5        0.1222
    142 C5        -12.4000  -22.8980  -34.8420 C.ar      5   G5        0.1744
    143 C6        -11.8770  -21.9530  -35.7570 C.2       5   G5        0.4770
    144 O6        -12.1410  -20.7320  -35.8190 O.2       5   G5       -0.5597
    145 N7        -13.6070  -22.8540  -34.1100 N.ar      5   G5       -0.5709
    146 C8        -13.7300  -24.0460  -33.6320 C.ar      5   G5        0.1374
    147 N9        -12.7010  -24.9200  -33.9590 N.ar      5   G5        0.0492
    148 OP1       -17.0710  -26.0510  -29.4170 O.co2     5   G5       -0.7760
    149 OP2       -17.2210  -23.8560  -30.7990 O.co2     5   G5       -0.7760
    150 H5'       -14.5051  -26.6602  -29.6025 H         5   G5        0.0679
    151 H5''      -15.3714  -27.5283  -30.8913 H         5   G5        0.0679
    152 H4'       -13.0604  -27.8884  -31.1433 H         5   G5        0.1174
    153 H3'       -12.6729  -24.8986  -30.8028 H         5   G5        0.0615
    154 H2'       -10.7912  -25.1681  -32.3164 H         5   G5        0.0972
    155 H1'       -11.9055  -26.8662  -34.1631 H         5   G5        0.2006
    156 H1        -10.0089  -21.6910  -36.6785 H         5   G5        0.3424
    157 H8        -14.5709  -24.3425  -33.0226 H         5   G5        0.1640
    158 H21        -8.4661  -23.2289  -37.1550 H         5   G5        0.4364
    159 H22        -8.6224  -24.8991  -36.6621 H         5   G5        0.4364
    160 HO2'       -9.6451  -26.9269  -32.0321 H         5   G5        0.4186
    161 P         -10.7320  -25.4770  -28.8950 P.3       6   A6        1.1662
    162 C5'        -8.5950  -26.0850  -30.2520 C.3       6   A6        0.0558
    163 O5'        -9.4790  -25.0670  -29.8470 O.3       6   A6       -0.4989
    164 C4'        -7.5800  -25.5960  -31.2860 C.3       6   A6        0.1065
    165 O4'        -8.2240  -25.0660  -32.4630 O.3       6   A6       -0.3548
    166 C3'        -6.6300  -24.5590  -30.7280 C.3       6   A6        0.2022
    167 O3'        -5.4490  -25.1230  -30.2080 O.3       6   A6       -0.5246
    168 C2'        -6.2970  -23.7770  -32.0230 C.3       6   A6        0.0670
    169 O2'        -5.1340  -24.3600  -32.6440 O.3       6   A6       -0.6139
    170 C1'        -7.5230  -23.8650  -32.8860 C.3       6   A6        0.0394
    171 N1         -8.5100  -19.1890  -34.7580 N.ar      6   A6       -0.7615
    172 C2         -7.6000  -20.1320  -35.0660 C.ar      6   A6        0.5875
    173 N3         -7.4190  -21.3220  -34.5540 N.ar      6   A6       -0.6997
    174 C4         -8.3280  -21.5420  -33.5450 C.ar      6   A6        0.3053
    175 C5         -9.1890  -20.6230  -32.9950 C.ar      6   A6        0.0515
    176 C6         -9.2060  -19.3350  -33.6140 C.ar      6   A6        0.7009
    177 N6        -10.0460  -18.3480  -33.2300 N.pl3     6   A6       -0.9019
    178 N7        -10.0420  -21.2850  -32.1210 N.ar      6   A6       -0.6073
    179 C8         -9.5590  -22.4850  -32.0370 C.ar      6   A6        0.2006
    180 N9         -8.3890  -22.6850  -32.7520 N.ar      6   A6       -0.0251
    181 OP1       -10.1530  -26.2210  -27.7550 O.co2     6   A6       -0.7760
    182 OP2       -11.4980  -24.2380  -28.6550 O.co2     6   A6       -0.7760
    183 H5'        -9.1743  -26.8991  -30.6877 H         6   A6        0.0679
    184 H5''       -8.0599  -26.4582  -29.3788 H         6   A6        0.0679
    185 H4'        -6.9848  -26.4553  -31.5951 H         6   A6        0.1174
    186 H3'        -7.1232  -23.9216  -29.9941 H         6   A6        0.0615
    187 H2'        -6.0964  -22.7339  -31.7785 H         6   A6        0.0972
    188 H1'        -7.2218  -23.9731  -33.9280 H         6   A6        0.2007
    189 H2         -6.9145  -19.8652  -35.8568 H         6   A6        0.0473
    190 H8        -10.0299  -23.2650  -31.4572 H         6   A6        0.1553
    191 HO2'       -4.3425  -24.0453  -32.2011 H         6   A6        0.4186
    192 H61       -10.0826  -17.4828  -33.7498 H         6   A6        0.4115
    193 H62       -10.6381  -18.4760  -32.4219 H         6   A6        0.4115
    194 P          -4.5480  -24.4630  -29.0560 P.3       7   A7        1.1662
    195 C5'        -3.1180  -23.2720  -30.8560 C.3       7   A7        0.0558
    196 O5'        -4.0350  -23.1280  -29.7890 O.3       7   A7       -0.4989
    197 C4'        -2.7390  -21.9090  -31.4120 C.3       7   A7        0.1065
    198 O4'        -3.8510  -21.3130  -32.1420 O.3       7   A7       -0.3548
    199 C3'        -2.2360  -20.9300  -30.3690 C.3       7   A7        0.2022
    200 O3'        -0.8270  -20.9690  -30.2870 O.3       7   A7       -0.5246
    201 C2'        -2.7200  -19.6040  -31.0150 C.3       7   A7        0.0670
    202 O2'        -1.6900  -18.9780  -31.7500 O.3       7   A7       -0.6139
    203 C1'        -3.9770  -19.9010  -31.8060 C.3       7   A7        0.0394
    204 N1         -7.3110  -16.4490  -30.0010 N.ar      7   A7       -0.7615
    205 C2         -6.0340  -16.3210  -30.3110 C.ar      7   A7        0.5875
    206 N3         -5.1700  -17.2360  -30.7980 N.ar      7   A7       -0.6997
    207 C4         -5.7070  -18.4780  -30.6340 C.ar      7   A7        0.3053
    208 C5         -6.9950  -18.7900  -30.2440 C.ar      7   A7        0.0515
    209 C6         -7.8460  -17.6830  -29.9470 C.ar      7   A7        0.7009
    210 N6         -9.0960  -17.8370  -29.4400 N.pl3     7   A7       -0.9019
    211 N7         -7.0920  -20.1640  -29.9110 N.ar      7   A7       -0.6073
    212 C8         -5.9320  -20.6310  -30.3380 C.ar      7   A7        0.2006
    213 N9         -5.1610  -19.6910  -30.9740 N.ar      7   A7       -0.0251
    214 OP1        -3.3550  -25.3030  -28.7840 O.co2     7   A7       -0.7760
    215 OP2        -5.4360  -24.0850  -27.9060 O.co2     7   A7       -0.7760
    216 H5'        -3.5757  -23.8679  -31.6456 H         7   A7        0.0679
    217 H5''       -2.2216  -23.7770  -30.4960 H         7   A7        0.0679
    218 H4'        -1.9301  -22.0647  -32.1259 H         7   A7        0.1174
    219 H3'        -2.7017  -21.0997  -29.3982 H         7   A7        0.0615
    220 H2'        -2.9973  -18.9297  -30.2047 H         7   A7        0.0972
    221 H1'        -4.0223  -19.2898  -32.7074 H         7   A7        0.2007
    222 H2         -5.6189  -15.3369  -30.1509 H         7   A7        0.0473
    223 H8         -5.6203  -21.6557  -30.1995 H         7   A7        0.1553
    224 HO2'       -1.0814  -18.5469  -31.1455 H         7   A7        0.4186
    225 H61        -9.6389  -17.0270  -29.1767 H         7   A7        0.4115
    226 H62        -9.4835  -18.7627  -29.3260 H         7   A7        0.4115
    227 P          -0.0280  -20.4260  -28.9750 P.3       8   G8        1.1662
    228 C5'         1.3470  -19.1030  -30.7640 C.3       8   G8        0.0558
    229 O5'         0.5380  -19.0180  -29.5590 O.3       8   G8       -0.4989
    230 C4'         1.5410  -17.6620  -31.2620 C.3       8   G8        0.1065
    231 O4'         2.4410  -16.9150  -30.4350 O.3       8   G8       -0.3548
    232 C3'         2.4800  -17.5840  -32.4440 C.3       8   G8        0.2022
    233 O3'         2.7990  -16.2520  -32.8350 O.3       8   G8       -0.5246
    234 C2'         3.7330  -18.2910  -31.8620 C.3       8   G8        0.0670
    235 O2'         4.7780  -18.1890  -32.8240 O.3       8   G8       -0.6139
    236 C1'         3.7960  -17.2750  -30.7540 C.3       8   G8        0.0191
    237 N1          8.3610  -17.7420  -28.5360 N.am      8   G8       -0.4787
    238 C2          8.0490  -17.6300  -29.8890 C.2       8   G8        0.7657
    239 N2          9.0470  -17.1480  -30.6780 N.pl3     8   G8       -0.9672
    240 N3          6.8020  -17.6620  -30.3900 N.2       8   G8       -0.6323
    241 C4          5.8560  -17.7840  -29.3950 C.ar      8   G8        0.1222
    242 C5          6.1070  -18.0660  -28.0620 C.ar      8   G8        0.1744
    243 C6          7.4140  -17.8670  -27.5270 C.2       8   G8        0.4770
    244 O6          7.7540  -17.9470  -26.3300 O.2       8   G8       -0.5597
    245 N7          4.8900  -18.3590  -27.4290 N.ar      8   G8       -0.5709
    246 C8          3.9660  -17.9880  -28.2890 C.ar      8   G8        0.1374
    247 N9          4.4950  -17.8550  -29.5700 N.ar      8   G8        0.0492
    248 OP1         1.1540  -21.2690  -28.7320 O.co2     8   G8       -0.7760
    249 OP2        -1.0400  -20.1020  -27.9700 O.co2     8   G8       -0.7760
    250 H5'         2.3122  -19.5564  -30.5382 H         8   G8        0.0679
    251 H5''        0.8274  -19.6913  -31.5203 H         8   G8        0.0679
    252 H4'         0.5979  -17.1441  -31.4361 H         8   G8        0.1174
    253 H3'         2.0806  -18.1459  -33.2883 H         8   G8        0.0615
    254 H2'         3.5465  -19.3085  -31.5184 H         8   G8        0.0972
    255 H1'         4.3354  -16.3929  -31.0992 H         8   G8        0.2006
    256 H1          9.3359  -17.7317  -28.2722 H         8   G8        0.3424
    257 H8          2.9317  -17.8098  -28.0344 H         8   G8        0.1640
    258 H21         9.9716  -17.0051  -30.2975 H         8   G8        0.4364
    259 H22         8.8627  -16.9323  -31.6473 H         8   G8        0.4364
    260 HO2'        5.5807  -17.8850  -32.3941 H         8   G8        0.4186
    261 P           3.0140  -15.8300  -34.3500 P.3       9   G9        1.1662
    262 C5'         5.1370  -14.6820  -33.3300 C.3       9   G9        0.0558
    263 O5'         4.5460  -15.3950  -34.4260 O.3       9   G9       -0.4989
    264 C4'         6.1650  -13.6920  -33.8220 C.3       9   G9        0.1065
    265 O4'         6.6110  -12.8240  -32.7470 O.3       9   G9       -0.3548
    266 C3'         7.4440  -14.2850  -34.3230 C.3       9   G9        0.2022
    267 O3'         8.1240  -13.4750  -35.2930 O.3       9   G9       -0.5246
    268 C2'         8.2180  -14.5260  -33.0590 C.3       9   G9        0.0670
    269 O2'         9.6580  -14.5320  -33.2850 O.3       9   G9       -0.6139
    270 C1'         7.8640  -13.3090  -32.2130 C.3       9   G9        0.0191
    271 N1         10.5590  -14.5770  -28.0700 N.am      9   G9       -0.4787
    272 C2         10.9590  -14.2130  -29.3560 C.2       9   G9        0.7657
    273 N2         12.2840  -14.1470  -29.5660 N.pl3     9   G9       -0.9672
    274 N3         10.1360  -14.0180  -30.3850 N.2       9   G9       -0.6323
    275 C4          8.8130  -14.0420  -29.9980 C.ar      9   G9        0.1222
    276 C5          8.3460  -14.2060  -28.7320 C.ar      9   G9        0.1744
    277 C6          9.2000  -14.5850  -27.6800 C.2       9   G9        0.4770
    278 O6          8.9050  -14.7740  -26.4780 O.2       9   G9       -0.5597
    279 N7          6.9310  -14.1430  -28.7720 N.ar      9   G9       -0.5709
    280 C8          6.6880  -13.6930  -29.9770 C.ar      9   G9        0.1374
    281 N9          7.7590  -13.6450  -30.7930 N.ar      9   G9        0.0492
    282 OP1         2.1380  -14.6670  -34.7080 O.co2     9   G9       -0.7760
    283 OP2         2.9020  -17.0950  -35.1550 O.co2     9   G9       -0.7760
    284 H5'         5.6194  -15.3939  -32.6602 H         9   G9        0.0679
    285 H5''        4.3570  -14.1492  -32.7861 H         9   G9        0.0679
    286 H4'         5.7229  -13.0828  -34.6104 H         9   G9        0.1174
    287 H3'         7.2201  -15.2500  -34.7778 H         9   G9        0.0615
    288 H2'         7.8952  -15.4467  -32.5730 H         9   G9        0.0972
    289 H1'         8.6301  -12.5450  -32.3452 H         9   G9        0.2006
    290 H1         11.2626  -14.8433  -27.3961 H         9   G9        0.3424
    291 H8          5.7029  -13.3834  -30.2933 H         9   G9        0.1640
    292 H21        12.9254  -14.3237  -28.8061 H         9   G9        0.4364
    293 H22        12.6390  -13.9206  -30.4841 H         9   G9        0.4364
    294 HO2'        9.8438  -14.8840  -34.1586 H         9   G9        0.4186
    295 P           9.0300  -14.2000  -36.4360 P.3      10   A10       1.1662
    296 C5'         9.3620  -11.8980  -37.6300 C.3      10   A10       0.0558
    297 O5'         9.9930  -12.9950  -36.9110 O.3      10   A10      -0.4989
    298 C4'        10.2270  -10.6270  -37.4500 C.3      10   A10       0.1065
    299 O4'        10.4530  -10.3740  -36.0410 O.3      10   A10      -0.3548
    300 C3'        11.6520  -10.8780  -37.9130 C.3      10   A10       0.2022
    301 O3'        11.8100  -10.8600  -39.3200 O.3      10   A10      -0.5246
    302 C2'        12.3350   -9.7140  -37.2510 C.3      10   A10       0.0670
    303 O2'        12.2690   -8.4960  -37.9440 O.3      10   A10      -0.6139
    304 C1'        11.6910   -9.6920  -35.8960 C.3      10   A10       0.0394
    305 N1         13.5260   -9.2000  -31.1480 N.ar     10   A10      -0.7615
    306 C2         12.8300   -8.3750  -31.9300 C.ar     10   A10       0.5875
    307 N3         12.3360   -8.5600  -33.1580 N.ar     10   A10      -0.6997
    308 C4         12.7280   -9.7950  -33.6140 C.ar     10   A10       0.3053
    309 C5         13.3530  -10.7960  -32.8840 C.ar     10   A10       0.0515
    310 C6         13.6620  -10.4930  -31.5440 C.ar     10   A10       0.7009
    311 N6         14.2070  -11.3820  -30.6780 N.pl3    10   A10      -0.9019
    312 N7         13.5470  -11.9340  -33.6540 N.ar     10   A10      -0.6073
    313 C8         12.9430  -11.6280  -34.7970 C.ar     10   A10       0.2006
    314 N9         12.4910  -10.3210  -34.8480 N.ar     10   A10      -0.0251
    315 OP1         8.2190  -14.6210  -37.5600 O.co2    10   A10      -0.7760
    316 OP2         9.9370  -15.1850  -35.7380 O.co2    10   A10      -0.7760
    317 H5'         9.2903  -12.1463  -38.6889 H        10   A10       0.0679
    318 H5''        8.3646  -11.7220  -37.2270 H        10   A10       0.0679
    319 H4'         9.7861   -9.7644  -37.9496 H        10   A10       0.1174
    320 H3'        12.0230  -11.8173  -37.5028 H        10   A10       0.0615
    321 H2'        13.3863   -9.9704  -37.1201 H        10   A10       0.0972
    322 H1'        11.4933   -8.6573  -35.6160 H        10   A10       0.2007
    323 H2         12.6341   -7.4023  -31.5035 H        10   A10       0.0473
    324 H8         12.8170  -12.3307  -35.6074 H        10   A10       0.1553
    325 H61        14.1505  -12.3817  -30.8105 H        10   A10       0.4115
    326 H62        14.6908  -11.0293  -29.8646 H        10   A10       0.4115
    327 HO2'       12.6998   -8.5888  -38.7969 H        10   A10       0.4186
    328 P          12.8360  -11.9100  -40.0040 P.3      11   A11       1.1662
    329 C5'        15.4030  -12.1340  -39.7940 C.3      11   A11       0.0558
    330 O5'        14.2480  -11.4370  -39.3310 O.3      11   A11      -0.4989
    331 C4'        16.4850  -12.1920  -38.7320 C.3      11   A11       0.1065
    332 O4'        16.8330  -10.8540  -38.2910 O.3      11   A11      -0.3548
    333 C3'        16.0040  -12.8800  -37.4800 C.3      11   A11       0.2022
    334 O3'        16.1280  -14.2870  -37.5000 O.3      11   A11      -0.5246
    335 C2'        16.9120  -12.2800  -36.4380 C.3      11   A11       0.0670
    336 O2'        18.1350  -13.0250  -36.3590 O.3      11   A11      -0.6139
    337 C1'        17.1800  -10.8310  -36.8990 C.3      11   A11       0.0394
    338 N1         16.7130   -8.2260  -32.4850 N.ar     11   A11      -0.7615
    339 C2         17.3800   -9.3390  -32.8080 C.ar     11   A11       0.5875
    340 N3         17.4340   -9.9830  -33.9680 N.ar     11   A11      -0.6997
    341 C4         16.5650   -9.4440  -34.8740 C.ar     11   A11       0.3053
    342 C5         15.8240   -8.2900  -34.6840 C.ar     11   A11       0.0515
    343 C6         15.9190   -7.6550  -33.4330 C.ar     11   A11       0.7009
    344 N6         15.1930   -6.5680  -33.0770 N.pl3    11   A11      -0.9019
    345 N7         15.0110   -8.1080  -35.7930 N.ar     11   A11      -0.6073
    346 C8         15.4630   -8.9680  -36.6620 C.ar     11   A11       0.2006
    347 N9         16.2680   -9.9260  -36.1250 N.ar     11   A11      -0.0251
    348 OP1        12.9570  -11.6070  -41.4310 O.co2    11   A11      -0.7760
    349 OP2        12.4690  -13.2460  -39.4740 O.co2    11   A11      -0.7760
    350 H5'        15.7966  -11.6217  -40.6719 H        11   A11       0.0679
    351 H5''       15.1198  -13.1496  -40.0707 H        11   A11       0.0679
    352 H4'        17.3671  -12.6991  -39.1230 H        11   A11       0.1174
    353 H3'        14.9701  -12.6011  -37.2767 H        11   A11       0.0615
    354 H2'        16.4147  -12.2764  -35.4681 H        11   A11       0.0972
    355 H1'        18.2252  -10.5567  -36.7558 H        11   A11       0.2007
    356 H2         17.9591   -9.7781  -32.0091 H        11   A11       0.0473
    357 H8         15.2208   -8.9246  -37.7136 H        11   A11       0.1553
    358 HO2'       18.3071  -13.2625  -35.4449 H        11   A11       0.4186
    359 H61        15.2812   -6.1837  -32.1471 H        11   A11       0.4115
    360 H62        14.5633   -6.1417  -33.7417 H        11   A11       0.4115
    361 P          15.1470  -15.1640  -36.5790 P.3      12   G12       1.1662
    362 C5'        14.6960  -15.1940  -34.0050 C.3      12   G12       0.0558
    363 O5'        15.4980  -14.7100  -35.0670 O.3      12   G12      -0.4989
    364 C4'        15.2770  -14.7380  -32.6700 C.3      12   G12       0.1065
    365 O4'        14.3770  -14.9370  -31.6120 O.3      12   G12      -0.3548
    366 C3'        16.5810  -15.4160  -32.3230 C.3      12   G12       0.2022
    367 O3'        17.4960  -14.5750  -31.5950 O.3      12   G12      -0.5246
    368 C2'        16.0630  -16.5760  -31.4300 C.3      12   G12       0.0670
    369 O2'        17.1140  -16.9970  -30.5170 O.3      12   G12      -0.6139
    370 C1'        14.9700  -15.8320  -30.6360 C.3      12   G12       0.0191
    371 N1         13.0360  -18.3840  -26.6220 N.am     12   G12      -0.4787
    372 C2         14.3680  -18.0730  -26.9000 C.2      12   G12       0.7657
    373 N2         15.2620  -18.3920  -25.9600 N.pl3    12   G12      -0.9672
    374 N3         14.7640  -17.3740  -27.9950 N.2      12   G12      -0.6323
    375 C4         13.8000  -17.3760  -28.9620 C.ar     12   G12       0.1222
    376 C5         12.4630  -17.6500  -28.7720 C.ar     12   G12       0.1744
    377 C6         12.0250  -18.2890  -27.5610 C.2      12   G12       0.4770
    378 O6         10.8260  -18.4950  -27.2730 O.2      12   G12      -0.5597
    379 N7         11.7620  -17.4820  -29.9920 N.ar     12   G12      -0.5709
    380 C8         12.6730  -17.0390  -30.7960 C.ar     12   G12       0.1374
    381 N9         13.9080  -16.8160  -30.2350 N.ar     12   G12       0.0492
    382 OP1        15.5190  -16.5600  -36.7520 O.co2    12   G12      -0.7760
    383 OP2        13.7320  -14.7480  -36.8900 O.co2    12   G12      -0.7760
    384 H5'        13.6831  -14.8054  -34.1104 H        12   G12       0.0679
    385 H5''       14.6715  -16.2833  -34.0366 H        12   G12       0.0679
    386 H4'        15.4703  -13.6677  -32.7423 H        12   G12       0.1174
    387 H3'        17.0570  -15.8095  -33.2211 H        12   G12       0.0615
    388 H2'        15.6624  -17.4044  -32.0143 H        12   G12       0.0972
    389 H1'        15.3775  -15.2948  -29.7795 H        12   G12       0.2006
    390 H1         12.7990  -18.6933  -25.6902 H        12   G12       0.3424
    391 H8         12.4760  -16.8559  -31.8420 H        12   G12       0.1640
    392 H21        14.9655  -18.8734  -25.1230 H        12   G12       0.4364
    393 H22        16.2348  -18.1517  -26.0863 H        12   G12       0.4364
    394 HO2'       17.7971  -17.4608  -31.0067 H        12   G12       0.4186
    395 P          18.7820  -13.9720  -32.3600 P.3      13   G13       1.1662
    396 C5'        19.3700  -13.7420  -29.7930 C.3      13   G13       0.0558
    397 O5'        19.6000  -13.3440  -31.1540 O.3      13   G13      -0.4989
    398 C4'        19.4710  -12.4820  -28.9250 C.3      13   G13       0.1065
    399 O4'        18.1520  -12.0150  -28.5450 O.3      13   G13      -0.3548
    400 C3'        20.1730  -12.8090  -27.6120 C.3      13   G13       0.2022
    401 O3'        20.7260  -11.6540  -27.0050 O.3      13   G13      -0.5246
    402 C2'        19.0140  -13.3980  -26.8320 C.3      13   G13       0.0670
    403 O2'        19.2500  -13.3650  -25.4450 O.3      13   G13      -0.6139
    404 C1'        17.8440  -12.4380  -27.1880 C.3      13   G13       0.0191
    405 N1         13.8290  -13.7350  -24.2650 N.am     13   G13      -0.4787
    406 C2         15.0860  -13.2520  -23.9150 C.2      13   G13       0.7657
    407 N2         15.2820  -13.0570  -22.6000 N.pl3    13   G13      -0.9672
    408 N3         16.0990  -13.1110  -24.7490 N.2      13   G13      -0.6323
    409 C4         15.7440  -13.2780  -26.0730 C.ar     13   G13       0.1222
    410 C5         14.5160  -13.6980  -26.5080 C.ar     13   G13       0.1744
    411 C6         13.4840  -14.0640  -25.5860 C.2      13   G13       0.4770
    412 O6         12.3290  -14.4650  -25.8530 O.2      13   G13      -0.5597
    413 N7         14.5760  -13.9020  -27.8960 N.ar     13   G13      -0.5709
    414 C8         15.8580  -13.7590  -28.1900 C.ar     13   G13       0.1374
    415 N9         16.5880  -13.2120  -27.1580 N.ar     13   G13       0.0492
    416 OP1        18.3640  -12.9300  -33.3150 O.co2    13   G13      -0.7760
    417 OP2        19.5310  -15.1350  -32.9250 O.co2    13   G13      -0.7760
    418 H5'        18.3778  -14.1827  -29.6962 H        13   G13       0.0679
    419 H5''       20.1267  -14.4640  -29.4861 H        13   G13       0.0679
    420 H4'        20.0106  -11.6986  -29.4572 H        13   G13       0.1174
    421 H3'        20.9454  -13.5614  -27.7712 H        13   G13       0.0615
    422 H2'        18.7981  -14.4132  -27.1649 H        13   G13       0.0972
    423 H1'        17.8045  -11.5888  -26.5058 H        13   G13       0.2006
    424 H1         13.1364  -13.8538  -23.5395 H        13   G13       0.3424
    425 H8         16.2872  -14.0416  -29.1399 H        13   G13       0.1640
    426 H21        14.5264  -13.2112  -21.9478 H        13   G13       0.4364
    427 H22        16.1855  -12.7560  -22.2636 H        13   G13       0.4364
    428 HO2'       18.4526  -13.0829  -24.9909 H        13   G13       0.4186
    429 P          22.0240  -11.6820  -26.0910 P.3      14   U14       1.1662
    430 C5'        21.7390   -9.0610  -26.1210 C.3      14   U14       0.0558
    431 O5'        22.6300  -10.1750  -26.3040 O.3      14   U14      -0.4989
    432 C4'        22.3770   -7.7480  -26.4560 C.3      14   U14       0.1065
    433 O4'        21.7540   -7.1400  -27.6220 O.3      14   U14      -0.3548
    434 C3'        22.2400   -6.6840  -25.4110 C.3      14   U14       0.2022
    435 O3'        23.2030   -5.6680  -25.5780 O.3      14   U14      -0.5246
    436 C2'        20.8430   -6.2070  -25.6770 C.3      14   U14       0.0670
    437 O2'        20.5840   -4.9000  -25.1110 O.3      14   U14      -0.6139
    438 C1'        20.8260   -6.1340  -27.1910 C.3      14   U14       0.0674
    439 N1         19.4430   -6.4850  -27.6620 N.am     14   U14       0.0418
    440 C2         18.4840   -5.5310  -27.6020 C.2      14   U14       0.4687
    441 O2         18.6470   -4.4220  -27.0390 O.2      14   U14      -0.5477
    442 N3         17.2510   -5.8450  -28.1620 N.am     14   U14      -0.3549
    443 C4         16.9400   -7.0460  -28.8380 C.2      14   U14       0.5952
    444 O4         15.8040   -7.1850  -29.3300 O.2      14   U14      -0.5761
    445 C5         18.0430   -7.9540  -28.9130 C.2      14   U14      -0.3635
    446 C6         19.2280   -7.6740  -28.3120 C.2      14   U14      -0.1126
    447 OP1        22.9910  -12.6630  -26.6630 O.co2    14   U14      -0.7760
    448 OP2        21.6880  -11.8030  -24.6670 O.co2    14   U14      -0.7760
    449 H5'        20.8703   -9.2004  -26.7644 H        14   U14       0.0679
    450 H5''       21.4095   -9.0390  -25.0822 H        14   U14       0.0679
    451 H4'        23.4351   -7.9094  -26.6621 H        14   U14       0.1174
    452 H3'        22.3117   -7.1174  -24.4135 H        14   U14       0.0615
    453 H2'        20.1135   -6.9332  -25.3184 H        14   U14       0.0972
    454 H1'        21.1237   -5.1459  -27.5420 H        14   U14       0.1824
    455 H3         16.5161   -5.1571  -28.0787 H        14   U14       0.3154
    456 H5         17.9310   -8.8797  -29.4579 H        14   U14       0.1811
    457 H6         20.0215   -8.4059  -28.3465 H        14   U14       0.2188
    458 HO2'       21.2361   -4.7096  -24.4327 H        14   U14       0.4186
    459 P          23.7150   -4.8040  -24.3060 P.3      15   U15       1.1662
    460 C5'        25.7920   -6.3910  -24.0040 C.3      15   U15       0.0558
    461 O5'        24.5520   -5.9060  -23.4630 O.3      15   U15      -0.4989
    462 C4'        26.5470   -7.1960  -22.9500 C.3      15   U15       0.1065
    463 O4'        26.7380   -6.4540  -21.7400 O.3      15   U15      -0.3548
    464 C3'        25.8130   -8.5010  -22.5920 C.3      15   U15       0.2022
    465 O3'        26.2370   -9.5960  -23.4030 O.3      15   U15      -0.5246
    466 C2'        26.1810   -8.6500  -21.1230 C.3      15   U15       0.0670
    467 O2'        27.0410   -9.7850  -20.9200 O.3      15   U15      -0.6139
    468 C1'        26.7910   -7.3730  -20.6350 C.3      15   U15       0.0674
    469 N1         25.9970   -6.7800  -19.5050 N.am     15   U15       0.0418
    470 C2         26.0830   -7.3800  -18.2790 C.2      15   U15       0.4687
    471 O2         26.7430   -8.4150  -18.0610 O.2      15   U15      -0.5477
    472 N3         25.2090   -6.8920  -17.3190 N.am     15   U15      -0.3549
    473 C4         24.3510   -5.7830  -17.4280 C.2      15   U15       0.5952
    474 O4         23.6580   -5.4310  -16.4640 O.2      15   U15      -0.5761
    475 C5         24.2890   -5.2580  -18.7830 C.2      15   U15      -0.3635
    476 C6         25.0300   -5.8340  -19.7830 C.2      15   U15      -0.1126
    477 OP1        22.5510   -4.3990  -23.5120 O.co2    15   U15      -0.7760
    478 OP2        24.6890   -3.8140  -24.8320 O.co2    15   U15      -0.7760
    479 H5'        25.5850   -7.0283  -24.8637 H        15   U15       0.0679
    480 H5''       26.4036   -5.5458  -24.3197 H        15   U15       0.0679
    481 H4'        27.5268   -7.4533  -23.3524 H        15   U15       0.1174
    482 H3'        24.7367   -8.3604  -22.6921 H        15   U15       0.0615
    483 H2'        25.2622   -8.8197  -20.5617 H        15   U15       0.0972
    484 H1'        27.8236   -7.5384  -20.3278 H        15   U15       0.1824
    485 H3         25.1861   -7.3903  -16.4408 H        15   U15       0.3154
    486 H5         23.6565   -4.4106  -19.0027 H        15   U15       0.1811
    487 H6         24.8539   -5.5421  -20.8078 H        15   U15       0.2188
    488 HO2'       26.7260  -10.5238  -21.4459 H        15   U15       0.4186
    489 P          25.2490  -10.8290  -23.7040 P.3      16   U16       1.1662
    490 C5'        24.6130  -12.8520  -22.1110 C.3      16   U16       0.0558
    491 O5'        25.3010  -11.5940  -22.2720 O.3      16   U16      -0.4989
    492 C4'        24.0990  -12.9960  -20.6790 C.3      16   U16       0.1065
    493 O4'        24.1280  -11.7650  -19.9500 O.3      16   U16      -0.3548
    494 C3'        22.6080  -13.4180  -20.7070 C.3      16   U16       0.2022
    495 O3'        22.4760  -14.8400  -20.7430 O.3      16   U16      -0.5246
    496 C2'        22.1360  -12.8400  -19.4030 C.3      16   U16       0.0670
    497 O2'        22.0900  -13.7680  -18.3350 O.3      16   U16      -0.6139
    498 C1'        23.0200  -11.6580  -19.0950 C.3      16   U16       0.0674
    499 N1         22.2640  -10.3790  -19.2460 N.am     16   U16       0.0418
    500 C2         21.5900   -9.9270  -18.1090 C.2      16   U16       0.4687
    501 O2         21.4760  -10.6230  -17.1020 O.2      16   U16      -0.5477
    502 N3         20.9990   -8.6880  -18.2290 N.am     16   U16      -0.3549
    503 C4         21.0190   -7.8210  -19.3050 C.2      16   U16       0.5952
    504 O4         20.3450   -6.7820  -19.3490 O.2      16   U16      -0.5761
    505 C5         21.8440   -8.3240  -20.4060 C.2      16   U16      -0.3635
    506 C6         22.3240   -9.6120  -20.3590 C.2      16   U16      -0.1126
    507 OP1        25.8480  -11.6700  -24.7420 O.co2    16   U16      -0.7760
    508 OP2        23.8880  -10.2880  -23.9040 O.co2    16   U16      -0.7760
    509 H5'        23.7702  -12.8917  -22.8011 H        16   U16       0.0679
    510 H5''       25.2992  -13.6695  -22.3321 H        16   U16       0.0679
    511 H4'        24.6846  -13.7493  -20.1521 H        16   U16       0.1174
    512 H3'        22.0888  -12.9575  -21.5475 H        16   U16       0.0615
    513 H2'        21.1245  -12.4638  -19.5563 H        16   U16       0.0972
    514 H1'        23.3653  -11.7397  -18.0644 H        16   U16       0.1824
    515 H3         20.4815   -8.3707  -17.4218 H        16   U16       0.3154
    516 H5         22.0736   -7.6882  -21.2483 H        16   U16       0.1811
    517 H6         22.7686  -10.0298  -21.2502 H        16   U16       0.2188
    518 HO2'       21.3072  -14.3170  -18.4210 H        16   U16       0.4186
    519 P          21.1910  -15.5770  -21.3710 P.3      17   G17       1.1662
    520 C5'        18.6430  -15.1830  -20.9720 C.3      17   G17       0.0558
    521 O5'        19.9660  -15.0740  -20.5170 O.3      17   G17      -0.4989
    522 C4'        17.6970  -14.5230  -20.0130 C.3      17   G17       0.1065
    523 O4'        16.3410  -14.5520  -20.4100 O.3      17   G17      -0.3548
    524 C3'        17.5880  -15.3250  -18.7000 C.3      17   G17       0.2022
    525 O3'        16.8660  -14.5790  -17.7340 O.3      17   G17      -0.5246
    526 C2'        16.8230  -16.5050  -19.2240 C.3      17   G17       0.0670
    527 O2'        16.2740  -17.2530  -18.1020 O.3      17   G17      -0.6139
    528 C1'        15.6620  -15.6970  -19.8590 C.3      17   G17       0.0191
    529 N1         11.2230  -17.2760  -21.9160 N.am     17   G17      -0.4787
    530 C2         11.4890  -16.7530  -20.6610 C.2      17   G17       0.7657
    531 N2         10.4140  -16.6300  -19.8580 N.pl3    17   G17      -0.9672
    532 N3         12.7240  -16.5170  -20.1720 N.2      17   G17      -0.6323
    533 C4         13.6780  -16.5840  -21.1640 C.ar     17   G17       0.1222
    534 C5         13.4940  -17.0260  -22.4640 C.ar     17   G17       0.1744
    535 C6         12.2030  -17.4200  -22.9100 C.2      17   G17       0.4770
    536 O6         11.8980  -17.8110  -24.0540 O.2      17   G17      -0.5597
    537 N7         14.7500  -17.2600  -23.0600 N.ar     17   G17      -0.5709
    538 C8         15.6110  -16.9840  -22.0990 C.ar     17   G17       0.1374
    539 N9         15.0420  -16.4790  -20.9710 N.ar     17   G17       0.0492
    540 OP1        21.4210  -17.0290  -21.1880 O.co2    17   G17      -0.7760
    541 OP2        21.0120  -15.0330  -22.7670 O.co2    17   G17      -0.7760
    542 H5'        18.3819  -16.2373  -21.0636 H        17   G17       0.0679
    543 H5''       18.5576  -14.7051  -21.9479 H        17   G17       0.0679
    544 H4'        18.0128  -13.4998  -19.8095 H        17   G17       0.1174
    545 H3'        18.5696  -15.6180  -18.3275 H        17   G17       0.0615
    546 H2'        17.3801  -17.1154  -19.9347 H        17   G17       0.0972
    547 H1'        14.9225  -15.4043  -19.1137 H        17   G17       0.2006
    548 H1         10.2789  -17.5675  -22.1255 H        17   G17       0.3424
    549 H8         16.6743  -17.1449  -22.1990 H        17   G17       0.1640
    550 H21         9.4939  -16.8589  -20.2060 H        17   G17       0.4364
    551 H22        10.5284  -16.3086  -18.9073 H        17   G17       0.4364
    552 HO2'       16.9714  -17.7654  -17.6865 H        17   G17       0.4186
    553 P          17.7080  -13.6530  -16.6750 P.3      18   G18       1.1662
    554 C5'        15.4580  -13.1810  -15.4730 C.3      18   G18       0.0558
    555 O5'        16.5530  -12.6430  -16.1870 O.3      18   G18      -0.4989
    556 C4'        14.3350  -12.1310  -15.3480 C.3      18   G18       0.1065
    557 O4'        14.0910  -11.5840  -16.6350 O.3      18   G18      -0.3548
    558 C3'        13.0710  -12.8110  -14.7540 C.3      18   G18       0.2022
    559 O3'        12.4510  -11.8970  -13.8280 O.3      18   G18      -0.5246
    560 C2'        12.2680  -12.9230  -16.0680 C.3      18   G18       0.0670
    561 O2'        10.8740  -12.9110  -15.8770 O.3      18   G18      -0.6139
    562 C1'        12.7500  -11.8350  -17.0600 C.3      18   G18       0.0191
    563 N1          9.8200  -13.4390  -20.9500 N.am     18   G18      -0.4787
    564 C2          9.4880  -13.0120  -19.6630 C.2      18   G18       0.7657
    565 N2          8.1640  -12.9500  -19.4300 N.pl3    18   G18      -0.9672
    566 N3         10.3560  -12.6530  -18.7290 N.2      18   G18      -0.6323
    567 C4         11.6290  -12.6780  -19.1710 C.ar     18   G18       0.1222
    568 C5         12.0830  -13.1370  -20.3860 C.ar     18   G18       0.1744
    569 C6         11.1650  -13.5400  -21.3790 C.2      18   G18       0.4770
    570 O6         11.4210  -13.9120  -22.5380 O.2      18   G18      -0.5597
    571 N7         13.4880  -13.1350  -20.4310 N.ar     18   G18      -0.5709
    572 C8         13.8250  -12.8430  -19.1960 C.ar     18   G18       0.1374
    573 N9         12.7570  -12.3590  -18.4390 N.ar     18   G18       0.0492
    574 OP1        18.7580  -12.9390  -17.3780 O.co2    18   G18      -0.7760
    575 OP2        18.0460  -14.5120  -15.4860 O.co2    18   G18      -0.7760
    576 H5'        15.0769  -14.0540  -16.0029 H        18   G18       0.0679
    577 H5''       15.7871  -13.4781  -14.4772 H        18   G18       0.0679
    578 H4'        14.6618  -11.3360  -14.6777 H        18   G18       0.1174
    579 H3'        13.2856  -13.7819  -14.3075 H        18   G18       0.0615
    580 H2'        12.5182  -13.8873  -16.5103 H        18   G18       0.0972
    581 H1'        12.1389  -10.9356  -16.9844 H        18   G18       0.2006
    582 H1          9.0800  -13.6826  -21.5927 H        18   G18       0.3424
    583 H8         14.8249  -12.9647  -18.8064 H        18   G18       0.1640
    584 H21         7.5109  -13.2140  -20.1538 H        18   G18       0.4364
    585 H22         7.8234  -12.6394  -18.5313 H        18   G18       0.4364
    586 HO2'       10.4486  -12.5231  -16.6452 H        18   G18       0.4186
    587 P          11.4170  -12.3560  -12.7070 P.3      19   U19       1.1662
    588 C5'        10.2280  -10.0370  -13.1060 C.3      19   U19       0.0558
    589 O5'        10.0950  -11.4660  -13.0980 O.3      19   U19      -0.4989
    590 C4'         8.8680   -9.3620  -13.0070 C.3      19   U19       0.1065
    591 O4'         8.3670   -9.4730  -11.6540 O.3      19   U19      -0.3548
    592 C3'         9.0310   -7.8750  -13.4010 C.3      19   U19       0.2022
    593 O3'         7.8430   -7.4340  -14.0290 O.3      19   U19      -0.5246
    594 C2'         9.1300   -7.2630  -11.9870 C.3      19   U19       0.0670
    595 O2'         8.6810   -5.9190  -11.9610 O.3      19   U19      -0.6139
    596 C1'         8.2430   -8.1530  -11.0980 C.3      19   U19       0.0674
    597 N1          8.7970   -8.1780   -9.6990 N.am     19   U19       0.0418
    598 C2          8.1760   -7.3620   -8.7510 C.2      19   U19       0.4687
    599 O2          7.3650   -6.4980   -9.1040 O.2      19   U19      -0.5477
    600 N3          8.7290   -7.4210   -7.4930 N.am     19   U19      -0.3549
    601 C4          9.5830   -8.4180   -7.0100 C.2      19   U19       0.5952
    602 O4         10.0320   -8.3100   -5.8470 O.2      19   U19      -0.5761
    603 C5         10.0820   -9.3160   -8.0370 C.2      19   U19      -0.3635
    604 C6          9.5240   -9.2490   -9.2890 C.2      19   U19      -0.1126
    605 OP1        11.8410  -11.8400  -11.3870 O.co2    19   U19      -0.7760
    606 OP2        11.0370  -13.7590  -12.9340 O.co2    19   U19      -0.7760
    607 H5'        10.8400   -9.7314  -12.2574 H        19   U19       0.0679
    608 H5''       10.7158   -9.7273  -14.0302 H        19   U19       0.0679
    609 H4'         8.1720   -9.8452  -13.6927 H        19   U19       0.1174
    610 H3'         9.9206   -7.6925  -14.0038 H        19   U19       0.0615
    611 H2'        10.1618   -7.3109  -11.6390 H        19   U19       0.0972
    612 H1'         7.2068   -7.8149  -11.1077 H        19   U19       0.1824
    613 H3          8.4959   -6.6722   -6.8566 H        19   U19       0.3154
    614 H5         10.8727  -10.0191   -7.8206 H        19   U19       0.1811
    615 H6          9.6678  -10.0747   -9.9701 H        19   U19       0.2188
    616 HO2'        8.3666   -5.6692  -12.8330 H        19   U19       0.4186
    617 P           7.8340   -6.1890  -15.0280 P.3      20   A20       1.1662
    618 C5'         5.2870   -6.5550  -15.3370 C.3      20   A20       0.0558
    619 O5'         6.5500   -6.3840  -15.9400 O.3      20   A20      -0.4989
    620 C4'         4.2970   -7.0190  -16.4240 C.3      20   A20       0.1065
    621 O4'         3.8810   -5.9380  -17.2660 O.3      20   A20      -0.3548
    622 C3'         4.9950   -7.9680  -17.4350 C.3      20   A20       0.2022
    623 O3'         5.1950   -9.2570  -16.9150 O.3      20   A20      -0.5246
    624 C2'         3.9940   -7.8960  -18.5920 C.3      20   A20       0.0670
    625 O2'         2.8730   -8.7920  -18.3990 O.3      20   A20      -0.6139
    626 C1'         3.4840   -6.4540  -18.5550 C.3      20   A20       0.0394
    627 N1          4.1880   -5.6480  -23.6270 N.ar     20   A20      -0.7615
    628 C2          3.7530   -6.7270  -22.9650 C.ar     20   A20       0.5875
    629 N3          3.5810   -6.8980  -21.6390 N.ar     20   A20      -0.6997
    630 C4          4.0410   -5.8170  -20.9680 C.ar     20   A20       0.3053
    631 C5          4.5200   -4.6280  -21.5070 C.ar     20   A20       0.0515
    632 C6          4.6140   -4.5840  -22.9220 C.ar     20   A20       0.7009
    633 N6          5.0960   -3.5350  -23.6090 N.pl3    20   A20      -0.9019
    634 N7          5.2310   -3.9050  -20.5420 N.ar     20   A20      -0.6073
    635 C8          4.9530   -4.5490  -19.4130 C.ar     20   A20       0.2006
    636 N9          4.0550   -5.6070  -19.6000 N.ar     20   A20      -0.0251
    637 OP1         9.0180   -6.3750  -15.9340 O.co2    20   A20      -0.7760
    638 OP2         7.7300   -4.9770  -14.2220 O.co2    20   A20      -0.7760
    639 H5'         5.3517   -7.3072  -14.5508 H        20   A20       0.0679
    640 H5''        4.9508   -5.6086  -14.9134 H        20   A20       0.0679
    641 H4'         3.4335   -7.5077  -15.9727 H        20   A20       0.1174
    642 H3'         5.9493   -7.5417  -17.7444 H        20   A20       0.0615
    643 H2'         4.4899   -8.1023  -19.5405 H        20   A20       0.0972
    644 H1'         2.3968   -6.4482  -18.6325 H        20   A20       0.2007
    645 H2          3.5051   -7.5800  -23.5793 H        20   A20       0.0473
    646 H8          5.3744   -4.2847  -18.4544 H        20   A20       0.1553
    647 HO2'        3.0169   -9.5979  -18.9004 H        20   A20       0.4186
    648 H61         5.1324   -3.5657  -24.6179 H        20   A20       0.4115
    649 H62         5.4220   -2.7156  -23.1166 H        20   A20       0.4115
    650 P           6.5620  -10.0700  -17.2200 P.3      21   U21       1.1662
    651 C5'         5.7520  -11.6130  -15.2720 C.3      21   U21       0.0558
    652 O5'         6.8080  -10.8110  -15.7920 O.3      21   U21      -0.4989
    653 C4'         5.9610  -12.0350  -13.8510 C.3      21   U21       0.1065
    654 O4'         6.0780  -10.9390  -12.9430 O.3      21   U21      -0.3548
    655 C3'         5.0700  -13.1330  -13.3530 C.3      21   U21       0.2022
    656 O3'         5.6930  -14.4000  -13.3220 O.3      21   U21      -0.5246
    657 C2'         4.7160  -12.5860  -11.9880 C.3      21   U21       0.0670
    658 O2'         5.2470  -13.3740  -10.9400 O.3      21   U21      -0.6139
    659 C1'         5.1920  -11.1320  -11.8200 C.3      21   U21       0.0674
    660 N1          4.0120  -10.2300  -12.0520 N.am     21   U21       0.0418
    661 C2          3.0790  -10.1520  -11.0320 C.2      21   U21       0.4687
    662 O2          3.1490  -10.7700   -9.9870 O.2      21   U21      -0.5477
    663 N3          2.0000   -9.2780  -11.2890 N.am     21   U21      -0.3549
    664 C4          1.8060   -8.4910  -12.4190 C.2      21   U21       0.5952
    665 O4          0.7640   -7.8760  -12.5990 O.2      21   U21      -0.5761
    666 C5          2.7930   -8.7530  -13.4750 C.2      21   U21      -0.3635
    667 C6          3.8450   -9.5590  -13.2000 C.2      21   U21      -0.1126
    668 OP1         7.6430   -9.1350  -17.4640 O.co2    21   U21      -0.7760
    669 OP2         6.2450  -11.1750  -18.1740 O.co2    21   U21      -0.7760
    670 H5'         5.6648  -12.5083  -15.8875 H        21   U21       0.0679
    671 H5''        4.8204  -11.0509  -15.3372 H        21   U21       0.0679
    672 H4'         6.9548  -12.4827  -13.8527 H        21   U21       0.1174
    673 H3'         4.1728  -13.1827  -13.9699 H        21   U21       0.0615
    674 H2'         3.6300  -12.5950  -11.8957 H        21   U21       0.0972
    675 H1'         5.6789  -10.9540  -10.8612 H        21   U21       0.1824
    676 H3          1.2905   -9.2178  -10.5727 H        21   U21       0.3154
    677 H5          2.6812   -8.3102  -14.4537 H        21   U21       0.1811
    678 H6          4.6042   -9.6693  -13.9602 H        21   U21       0.2188
    679 HO2'        4.9524  -14.2821  -11.0410 H        21   U21       0.4186
    680 P           4.9160  -15.7520  -13.6380 P.3      22   G22       1.1662
    681 C5'         5.0770  -15.2580  -16.2110 C.3      22   G22       0.0558
    682 O5'         4.2190  -15.3930  -15.0470 O.3      22   G22      -0.4989
    683 C4'         4.2480  -14.8860  -17.4140 C.3      22   G22       0.1065
    684 O4'         5.0620  -14.8460  -18.5950 O.3      22   G22      -0.3548
    685 C3'         3.1310  -15.8460  -17.7480 C.3      22   G22       0.2022
    686 O3'         2.0710  -15.1670  -18.4750 O.3      22   G22      -0.5246
    687 C2'         3.8220  -16.8650  -18.6340 C.3      22   G22       0.0670
    688 O2'         2.9090  -17.5980  -19.4610 O.3      22   G22      -0.6139
    689 C1'         4.6310  -15.8830  -19.5010 C.3      22   G22       0.0191
    690 N1          6.5050  -18.0550  -23.7530 N.am     22   G22      -0.4787
    691 C2          5.2600  -17.4640  -23.5380 C.2      22   G22       0.7657
    692 N2          4.4510  -17.3590  -24.6090 N.pl3    22   G22      -0.9672
    693 N3          4.8620  -16.9650  -22.3360 N.2      22   G22      -0.6323
    694 C4          5.8180  -17.1010  -21.3710 C.ar     22   G22       0.1222
    695 C5          7.0460  -17.7480  -21.4890 C.ar     22   G22       0.1744
    696 C6          7.3760  -18.3760  -22.7270 C.2      22   G22       0.4770
    697 O6          8.3790  -19.0990  -22.9310 O.2      22   G22      -0.5597
    698 N7          7.7900  -17.5510  -20.3340 N.ar     22   G22      -0.5709
    699 C8          6.9610  -16.9680  -19.4930 C.ar     22   G22       0.1374
    700 N9          5.7980  -16.5460  -20.0920 N.ar     22   G22       0.0492
    701 OP1         3.8800  -15.9220  -12.6000 O.co2    22   G22      -0.7760
    702 OP2         5.9170  -16.8310  -13.8220 O.co2    22   G22      -0.7760
    703 H5'         5.8173  -14.4795  -16.0267 H        22   G22       0.0679
    704 H5''        5.5847  -16.2040  -16.3990 H        22   G22       0.0679
    705 H4'         3.8207  -13.8966  -17.2510 H        22   G22       0.1174
    706 H3'         2.7419  -16.3173  -16.8455 H        22   G22       0.0615
    707 H2'         4.4701  -17.5274  -18.0602 H        22   G22       0.0972
    708 H1'         3.9996  -15.4620  -20.2835 H        22   G22       0.2006
    709 H1          6.7838  -18.2582  -24.7023 H        22   G22       0.3424
    710 H8          7.1728  -16.8353  -18.4423 H        22   G22       0.1640
    711 H21         4.7512  -17.7143  -25.5055 H        22   G22       0.4364
    712 H22         3.5438  -16.9249  -24.5159 H        22   G22       0.4364
    713 HO2'        2.4056  -18.2096  -18.9186 H        22   G22       0.4186
    714 P           0.9870  -14.2950  -17.6530 P.3      23   G23       1.1662
    715 C5'         1.8350  -12.6400  -19.4560 C.3      23   G23       0.0558
    716 O5'         0.7050  -13.0990  -18.6820 O.3      23   G23      -0.4989
    717 C4'         1.3650  -11.4520  -20.3100 C.3      23   G23       0.1065
    718 O4'         2.5090  -10.8150  -20.8820 O.3      23   G23      -0.3548
    719 C3'         0.6140  -11.9580  -21.5180 C.3      23   G23       0.2022
    720 O3'         0.0010  -10.9400  -22.2900 O.3      23   G23      -0.5246
    721 C2'         1.8130  -12.5240  -22.3020 C.3      23   G23       0.0670
    722 O2'         1.4980  -12.8190  -23.6390 O.3      23   G23      -0.6139
    723 C1'         2.8280  -11.3990  -22.1480 C.3      23   G23       0.0191
    724 N1          6.6750  -13.4170  -24.9660 N.am     23   G23      -0.4787
    725 C2          5.4790  -12.8410  -25.3870 C.2      23   G23       0.7657
    726 N2          5.1100  -13.1690  -26.6450 N.pl3    23   G23      -0.9672
    727 N3          4.4920  -12.4460  -24.5330 N.2      23   G23      -0.6323
    728 C4          4.9350  -12.3970  -23.2350 C.ar     23   G23       0.1222
    729 C5          6.1950  -12.7490  -22.7660 C.ar     23   G23       0.1744
    730 C6          7.1500  -13.3360  -23.6420 C.2      23   G23       0.4770
    731 O6          8.2920  -13.7010  -23.3460 O.2      23   G23      -0.5597
    732 N7          6.2140  -12.5460  -21.3830 N.ar     23   G23      -0.5709
    733 C8          5.0570  -12.0390  -21.1080 C.ar     23   G23       0.1374
    734 N9          4.2040  -11.9770  -22.1470 N.ar     23   G23       0.0492
    735 OP1         1.5920  -13.7630  -16.4360 O.co2    23   G23      -0.7760
    736 OP2        -0.2300  -15.1430  -17.5090 O.co2    23   G23      -0.7760
    737 H5'         2.1932  -13.4421  -20.1013 H        23   G23       0.0679
    738 H5''        2.6342  -12.3200  -18.7874 H        23   G23       0.0679
    739 H4'         0.7649  -10.7522  -19.7284 H        23   G23       0.1174
    740 H3'        -0.0958  -12.7407  -21.2502 H        23   G23       0.0615
    741 H2'         2.1834  -13.4215  -21.8066 H        23   G23       0.0972
    742 H1'         2.7175  -10.6678  -22.9487 H        23   G23       0.2006
    743 H1          7.2303  -13.9184  -25.6445 H        23   G23       0.3424
    744 H8          4.7949  -11.6916  -20.1195 H        23   G23       0.1640
    745 H21         5.7575  -13.6343  -27.2649 H        23   G23       0.4364
    746 H22         4.1791  -12.9470  -26.9679 H        23   G23       0.4364
    747 HO2'        0.5450  -12.8789  -23.7380 H        23   G23       0.4186
    748 P          -1.4350  -11.0480  -22.9420 P.3      24   G24       1.1662
    749 C5'        -0.1190   -9.5370  -24.5960 C.3      24   G24       0.0558
    750 O5'        -1.3760   -9.9230  -24.0950 O.3      24   G24      -0.4989
    751 C4'        -0.2410   -8.1820  -25.3490 C.3      24   G24       0.1065
    752 O4'        -0.8200   -7.1730  -24.4930 O.3      24   G24      -0.3548
    753 C3'         1.1440   -7.6570  -25.6860 C.3      24   G24       0.2022
    754 O3'         1.5650   -8.1700  -26.9650 O.3      24   G24      -0.5246
    755 C2'         0.8040   -6.1580  -25.8630 C.3      24   G24       0.0670
    756 O2'         0.3700   -5.9630  -27.2140 O.3      24   G24      -0.6139
    757 C1'        -0.3060   -5.8860  -24.8560 C.3      24   G24       0.0191
    758 N1          1.5120   -1.4520  -23.0570 N.am     24   G24      -0.4787
    759 C2          1.4800   -1.9330  -24.3760 C.2      24   G24       0.7657
    760 N2          1.9440   -1.1120  -25.3130 N.pl3    24   G24      -0.9672
    761 N3          1.2610   -3.2130  -24.6660 N.2      24   G24      -0.6323
    762 C4          0.7380   -3.9300  -23.6160 C.ar     24   G24       0.1222
    763 C5          0.7030   -3.5190  -22.3340 C.ar     24   G24       0.1744
    764 C6          1.0440   -2.1770  -21.9540 C.2      24   G24       0.4770
    765 O6          0.8540   -1.6160  -20.8540 O.2      24   G24      -0.5597
    766 N7          0.4610   -4.6370  -21.4970 N.ar     24   G24      -0.5709
    767 C8          0.3160   -5.6270  -22.3410 C.ar     24   G24       0.1374
    768 N9          0.2660   -5.2260  -23.6600 N.ar     24   G24       0.0492
    769 OP1        -2.4570  -10.6120  -21.9300 O.co2    24   G24      -0.7760
    770 OP2        -1.5590  -12.3700  -23.6040 O.co2    24   G24      -0.7760
    771 H5'         0.5817   -9.4281  -23.7682 H        24   G24       0.0679
    772 H5''        0.2472  -10.3007  -25.2821 H        24   G24       0.0679
    773 H4'        -0.8352   -8.3008  -26.2551 H        24   G24       0.1174
    774 H3'         1.8716   -7.8377  -24.8948 H        24   G24       0.0615
    775 H2'         1.6757   -5.5399  -25.6480 H        24   G24       0.0972
    776 H1'        -1.0875   -5.2696  -25.3002 H        24   G24       0.2006
    777 H1          1.8941   -0.5313  -22.8947 H        24   G24       0.3424
    778 H8          0.2425   -6.6598  -22.0339 H        24   G24       0.1640
    779 H21         2.0389   -1.4320  -26.2663 H        24   G24       0.4364
    780 H22         2.2022   -0.1660  -25.0711 H        24   G24       0.4364
    781 HO2'        0.1523   -5.0380  -27.3503 H        24   G24       0.4186
    782 P           3.1240   -8.5840  -27.1110 P.3      25   G25       1.1662
    783 C5'         3.9720   -6.1470  -27.7120 C.3      25   G25       0.0558
    784 O5'         3.8640   -7.2090  -26.7890 O.3      25   G25      -0.4989
    785 C4'         4.3280   -4.8410  -27.0800 C.3      25   G25       0.1065
    786 O4'         5.4550   -4.9810  -26.1880 O.3      25   G25      -0.3548
    787 C3'         4.6600   -3.7220  -28.0190 C.3      25   G25       0.2022
    788 O3'         4.0760   -2.4930  -27.6000 O.3      25   G25      -0.5246
    789 C2'         6.1630   -3.6990  -28.0100 C.3      25   G25       0.0670
    790 O2'         6.6870   -2.3670  -28.2470 O.3      25   G25      -0.6139
    791 C1'         6.4940   -4.1000  -26.5950 C.3      25   G25       0.0191
    792 N1         11.4370   -3.6370  -25.1000 N.am     25   G25      -0.4787
    793 C2         10.3910   -2.7050  -25.0720 C.2      25   G25       0.7657
    794 N2         10.7150   -1.5150  -24.5610 N.pl3    25   G25      -0.9672
    795 N3          9.1730   -2.9180  -25.5760 N.2      25   G25      -0.6323
    796 C4          8.9590   -4.2470  -25.8710 C.ar     25   G25       0.1222
    797 C5          9.9570   -5.1370  -26.1330 C.ar     25   G25       0.1744
    798 C6         11.2930   -4.9170  -25.6270 C.2      25   G25       0.4770
    799 O6         12.2560   -5.7050  -25.6900 O.2      25   G25      -0.5597
    800 N7          9.4320   -6.3150  -26.6990 N.ar     25   G25      -0.5709
    801 C8          8.2230   -5.9570  -27.0170 C.ar     25   G25       0.1374
    802 N9          7.8200   -4.7620  -26.4950 N.ar     25   G25       0.0492
    803 OP1         3.3760   -8.9110  -28.5350 O.co2    25   G25      -0.7760
    804 OP2         3.4500   -9.5320  -26.0390 O.co2    25   G25      -0.7760
    805 H5'         4.7435   -6.3996  -28.4394 H        25   G25       0.0679
    806 H5''        3.0210   -6.0369  -28.2331 H        25   G25       0.0679
    807 H4'         3.4742   -4.5235  -26.4814 H        25   G25       0.1174
    808 H3'         4.3062   -3.9701  -29.0197 H        25   G25       0.0615
    809 H2'         6.5703   -4.4135  -28.7254 H        25   G25       0.0972
    810 H1'         6.4849   -3.2149  -25.9588 H        25   G25       0.2006
    811 H1         12.3340   -3.3683  -24.7215 H        25   G25       0.3424
    812 H8          7.5857   -6.5599  -27.6468 H        25   G25       0.1640
    813 H21        11.6471   -1.3541  -24.2069 H        25   G25       0.4364
    814 H22        10.0279   -0.7755  -24.5284 H        25   G25       0.4364
    815 HO2'        6.8357   -2.2438  -29.1874 H        25   G25       0.4186
    816 P           2.7970   -1.8630  -28.3490 P.3      26   U26       1.1662
    817 C5'         4.4600   -0.6510  -30.0050 C.3      26   U26       0.0558
    818 O5'         3.3860   -1.5710  -29.7950 O.3      26   U26      -0.4989
    819 C4'         5.1640   -0.9800  -31.3420 C.3      26   U26       0.1065
    820 O4'         5.5760   -2.3390  -31.3580 O.3      26   U26      -0.3548
    821 C3'         4.1950   -0.9640  -32.4860 C.3      26   U26       0.2022
    822 O3'         3.9560    0.3750  -32.9800 O.3      26   U26      -0.5246
    823 C2'         4.8930   -1.7650  -33.5580 C.3      26   U26       0.0670
    824 O2'         5.9420   -0.9690  -34.1730 O.3      26   U26      -0.6139
    825 C1'         5.5150   -2.8470  -32.7180 C.3      26   U26       0.0674
    826 N1          4.6290   -4.0610  -32.6770 N.am     26   U26       0.0418
    827 C2          4.6660   -4.9010  -33.7760 C.2      26   U26       0.4687
    828 O2          5.0900   -4.5490  -34.8770 O.2      26   U26      -0.5477
    829 N3          3.9460   -6.0980  -33.6350 N.am     26   U26      -0.3549
    830 C4          3.0650   -6.4040  -32.5810 C.2      26   U26       0.5952
    831 O4          2.3110   -7.3810  -32.6620 O.2      26   U26      -0.5761
    832 C5          3.0790   -5.4520  -31.4840 C.2      26   U26      -0.3635
    833 C6          3.8540   -4.3240  -31.5920 C.2      26   U26      -0.1126
    834 OP1         2.4940   -0.5200  -27.7460 O.co2    26   U26      -0.7760
    835 OP2         1.7340   -2.9010  -28.4600 O.co2    26   U26      -0.7760
    836 H5'         5.1756   -0.7348  -29.1871 H        26   U26       0.0679
    837 H5''        4.0667    0.3649  -30.0415 H        26   U26       0.0679
    838 H4'         6.0034   -0.3089  -31.5239 H        26   U26       0.1174
    839 H3'         3.2571   -1.4406  -32.2008 H        26   U26       0.0615
    840 H2'         4.1949   -2.1649  -34.2934 H        26   U26       0.0972
    841 H1'         6.5095   -3.1020  -33.0842 H        26   U26       0.1824
    842 H3          4.0709   -6.7993  -34.3510 H        26   U26       0.3154
    843 H5          2.4888   -5.6288  -30.5970 H        26   U26       0.1811
    844 H6          3.8475   -3.6138  -30.7783 H        26   U26       0.2188
    845 HO2'        5.5470   -0.2779  -34.7096 H        26   U26       0.4186
    846 P           2.4990    0.8590  -33.3720 P.3      27   A27       1.1662
    847 C5'         2.8380    0.1980  -35.8440 C.3      27   A27       0.0558
    848 O5'         2.1240   -0.0300  -34.6580 O.3      27   A27      -0.4989
    849 C4'         2.5540   -0.8950  -36.8500 C.3      27   A27       0.1065
    850 O4'         2.6700   -2.1990  -36.3080 O.3      27   A27      -0.3548
    851 C3'         1.0970   -0.8390  -37.2730 C.3      27   A27       0.2022
    852 O3'         0.9670    0.1800  -38.3020 O.3      27   A27      -0.5246
    853 C2'         0.9700   -2.2440  -37.9100 C.3      27   A27       0.0670
    854 O2'         1.3000   -2.2260  -39.3020 O.3      27   A27      -0.6139
    855 C1'         1.8580   -3.1260  -37.0910 C.3      27   A27       0.0394
    856 N1         -1.5590   -6.9270  -36.6760 N.ar     27   A27      -0.7615
    857 C2         -0.9070   -6.4260  -37.7230 C.ar     27   A27       0.5875
    858 N3         -0.0360   -5.4410  -37.7720 N.ar     27   A27      -0.6997
    859 C4          0.2460   -4.9910  -36.5030 C.ar     27   A27       0.3053
    860 C5         -0.3660   -5.4030  -35.3350 C.ar     27   A27       0.0515
    861 C6         -1.3370   -6.4260  -35.4470 C.ar     27   A27       0.7009
    862 N6         -1.9210   -7.0260  -34.3800 N.pl3    27   A27      -0.9019
    863 N7          0.0740   -4.6200  -34.2540 N.ar     27   A27      -0.6073
    864 C8          1.0180   -3.8900  -34.7660 C.ar     27   A27       0.2006
    865 N9          1.1320   -3.9960  -36.1510 N.ar     27   A27      -0.0251
    866 OP1         2.5480    2.3010  -33.7550 O.co2    27   A27      -0.7760
    867 OP2         1.5850    0.4930  -32.2630 O.co2    27   A27      -0.7760
    868 H5'         2.5391    1.1585  -36.2638 H        27   A27       0.0679
    869 H5''        3.9054    0.2171  -35.6242 H        27   A27       0.0679
    870 H4'         3.2040   -0.7875  -37.7184 H        27   A27       0.1174
    871 H3'         0.4159   -0.6879  -36.4355 H        27   A27       0.0615
    872 H2'        -0.0592   -2.5856  -37.7996 H        27   A27       0.0972
    873 H1'         2.4948   -3.7254  -37.7416 H        27   A27       0.2007
    874 H2         -1.1247   -6.8967  -38.6703 H        27   A27       0.0473
    875 H8          1.6587   -3.2562  -34.1708 H        27   A27       0.1553
    876 HO2'        0.5469   -1.9087  -39.8058 H        27   A27       0.4186
    877 H61        -2.5612   -7.7947  -34.5194 H        27   A27       0.4115
    878 H62        -1.7155   -6.7038  -33.4451 H        27   A27       0.4115
    879 P          -0.5130    0.8320  -38.5950 P.3      28   G28       1.1662
    880 C5'        -1.2250   -0.9590  -40.3530 C.3      28   G28       0.0558
    881 O5'        -1.3260   -0.4750  -39.0360 O.3      28   G28      -0.4989
    882 C4'        -2.0780   -2.2300  -40.4910 C.3      28   G28       0.1065
    883 O4'        -1.7310   -3.1960  -39.4630 O.3      28   G28      -0.3548
    884 C3'        -3.5690   -1.9430  -40.4820 C.3      28   G28       0.2022
    885 O3'        -4.0830   -1.7250  -41.8200 O.3      28   G28      -0.5246
    886 C2'        -4.0440   -3.3310  -39.9720 C.3      28   G28       0.0670
    887 O2'        -4.4470   -4.1530  -41.0380 O.3      28   G28      -0.6139
    888 C1'        -2.9270   -3.9390  -39.1110 C.3      28   G28       0.0191
    889 N1         -5.5700   -5.4210  -34.9580 N.am     28   G28      -0.4787
    890 C2         -5.3550   -6.0680  -36.1730 C.2      28   G28       0.7657
    891 N2         -6.2490   -7.0520  -36.4520 N.pl3    28   G28      -0.9672
    892 N3         -4.5940   -5.5820  -37.1700 N.2      28   G28      -0.6323
    893 C4         -3.9020   -4.4960  -36.8080 C.ar     28   G28       0.1222
    894 C5         -4.0700   -3.7600  -35.6430 C.ar     28   G28       0.1744
    895 C6         -4.8350   -4.2720  -34.5740 C.2      28   G28       0.4770
    896 O6         -5.1210   -3.7020  -33.5070 O.2      28   G28      -0.5597
    897 N7         -3.0360   -2.7940  -35.6150 N.ar     28   G28      -0.5709
    898 C8         -2.7470   -2.6250  -36.8900 C.ar     28   G28       0.1374
    899 N9         -3.2260   -3.6670  -37.6850 N.ar     28   G28       0.0492
    900 OP1        -0.3820    1.7440  -39.7710 O.co2    28   G28      -0.7760
    901 OP2        -1.0340    1.3460  -37.2910 O.co2    28   G28      -0.7760
    902 H5'        -1.5853   -0.2010  -41.0485 H        28   G28       0.0679
    903 H5''       -0.1841   -1.1929  -40.5763 H        28   G28       0.0679
    904 H4'        -1.8387   -2.6798  -41.4546 H        28   G28       0.1174
    905 H3'        -3.8331   -1.1361  -39.7984 H        28   G28       0.0615
    906 H2'        -4.9098   -3.1710  -39.3294 H        28   G28       0.0972
    907 H1'        -2.8083   -5.0058  -39.3008 H        28   G28       0.2006
    908 H1         -6.2732   -5.7830  -34.3299 H        28   G28       0.3424
    909 H8         -2.2014   -1.7764  -37.2755 H        28   G28       0.1640
    910 H21        -6.9156   -7.3471  -35.7529 H        28   G28       0.4364
    911 H22        -6.2471   -7.4902  -37.3620 H        28   G28       0.4364
    912 HO2'       -5.3097   -4.5275  -40.8455 H        28   G28       0.4186
    913 P          -5.2820   -0.6350  -41.9600 P.3      29   U29       1.1662
    914 C5'        -6.9020   -2.6260  -42.1260 C.3      29   U29       0.0558
    915 O5'        -6.5040   -1.5010  -41.3600 O.3      29   U29      -0.4989
    916 C4'        -8.0300   -3.3990  -41.4510 C.3      29   U29       0.1065
    917 O4'        -7.6100   -3.7740  -40.1310 O.3      29   U29      -0.3548
    918 C3'        -9.2210   -2.4790  -41.2350 C.3      29   U29       0.2022
    919 O3'       -10.1240   -2.6480  -42.3600 O.3      29   U29      -0.5246
    920 C2'        -9.8360   -3.0710  -39.9820 C.3      29   U29       0.0670
    921 O2'       -10.9920   -3.8330  -40.2210 O.3      29   U29      -0.6139
    922 C1'        -8.7400   -3.8630  -39.2700 C.3      29   U29       0.0674
    923 N1         -8.4040   -3.1250  -38.0040 N.am     29   U29       0.0418
    924 C2         -9.0710   -3.4480  -36.8470 C.2      29   U29       0.4687
    925 O2         -9.8790   -4.3740  -36.7840 O.2      29   U29      -0.5477
    926 N3         -8.6190   -2.7940  -35.6980 N.am     29   U29      -0.3549
    927 C4         -7.5760   -1.8740  -35.6170 C.2      29   U29       0.5952
    928 O4         -7.2240   -1.3870  -34.5170 O.2      29   U29      -0.5761
    929 C5         -7.0550   -1.4880  -36.9130 C.2      29   U29      -0.3635
    930 C6         -7.3250   -2.2650  -37.9670 C.2      29   U29      -0.1126
    931 OP1        -5.5100   -0.3000  -43.3590 O.co2    29   U29      -0.7760
    932 OP2        -5.0020    0.4580  -41.0020 O.co2    29   U29      -0.7760
    933 H5'        -7.2436   -2.2846  -43.1032 H        29   U29       0.0679
    934 H5''       -6.0461   -3.2877  -42.2588 H        29   U29       0.0679
    935 H4'        -8.3113   -4.2741  -42.0367 H        29   U29       0.1174
    936 H3'        -8.9215   -1.4400  -41.0975 H        29   U29       0.0615
    937 H2'       -10.1175   -2.2427  -39.3317 H        29   U29       0.0972
    938 H1'        -9.0339   -4.8953  -39.0802 H        29   U29       0.1824
    939 H3         -9.0986   -3.0109  -34.8360 H        29   U29       0.3154
    940 H5         -6.4617   -0.5925  -37.0250 H        29   U29       0.1811
    941 H6         -6.6714   -2.2178  -38.8255 H        29   U29       0.2188
    942 HO2'      -11.3497   -4.1424  -39.3856 H        29   U29       0.4186
    943 P         -10.9490   -1.3980  -42.9210 P.3      30   U30       1.1662
    944 C5'       -12.8940   -3.1100  -43.4290 C.3      30   U30       0.0558
    945 O5'       -12.0110   -2.0820  -43.8820 O.3      30   U30      -0.4989
    946 C4'       -13.5640   -3.7690  -44.5980 C.3      30   U30       0.1065
    947 O4'       -14.2710   -2.8930  -45.4560 O.3      30   U30      -0.3548
    948 C3'       -12.6520   -4.6350  -45.4410 C.3      30   U30       0.2022
    949 O3'       -12.4740   -5.9220  -44.9150 O.3      30   U30      -0.5246
    950 C2'       -13.3730   -4.5940  -46.7750 C.3      30   U30       0.0670
    951 O2'       -14.1330   -5.7520  -47.0710 O.3      30   U30      -0.6139
    952 C1'       -14.1880   -3.3130  -46.8100 C.3      30   U30       0.0674
    953 N1        -13.5370   -2.2490  -47.6440 N.am     30   U30       0.0418
    954 C2        -14.4190   -1.4510  -48.3950 C.2      30   U30       0.4687
    955 O2        -15.6240   -1.6140  -48.3840 O.2      30   U30      -0.5477
    956 N3        -13.8060   -0.3440  -48.9910 N.am     30   U30      -0.3549
    957 C4        -12.4590   -0.1650  -49.1760 C.2      30   U30       0.5952
    958 O4        -12.0260    0.7840  -49.8660 O.2      30   U30      -0.5761
    959 C5        -11.6320   -0.9790  -48.2730 C.2      30   U30      -0.3635
    960 C6        -12.2020   -2.0780  -47.7200 C.2      30   U30      -0.1126
    961 OP1       -10.0820   -0.5090  -43.7000 O.co2    30   U30      -0.7760
    962 OP2       -11.7060   -0.8460  -41.7600 O.co2    30   U30      -0.7760
    963 H5'       -12.3243   -3.8550  -42.8736 H        30   U30       0.0679
    964 H5''      -13.6512   -2.6745  -42.7770 H        30   U30       0.0679
    965 H4'       -14.3102   -4.4419  -44.1756 H        30   U30       0.1174
    966 H3'       -11.6818   -4.1481  -45.5399 H        30   U30       0.0615
    967 H2'       -12.6093   -4.5075  -47.5479 H        30   U30       0.0972
    968 H1'       -15.1869   -3.5219  -47.1930 H        30   U30       0.1824
    969 H3        -14.4136    0.3943  -49.3163 H        30   U30       0.3154
    970 H5        -10.6080   -0.7113  -48.0581 H        30   U30       0.1811
    971 H6        -11.5588   -2.8496  -47.3233 H        30   U30       0.2188
    972 HO2'      -13.5414   -6.4805  -47.2731 H        30   U30       0.4186
    973 P         -11.1020   -6.7340  -45.2370 P.3      31   G31       1.1662
    974 C5'       -11.6970   -8.2170  -43.2080 C.3      31   G31       0.0558
    975 O5'       -11.4530   -8.1860  -44.6440 O.3      31   G31      -0.4989
    976 C4'       -12.1800   -9.5660  -42.7630 C.3      31   G31       0.1065
    977 O4'       -13.4660   -9.9350  -43.2180 O.3      31   G31      -0.3548
    978 C3'       -11.3750  -10.7340  -43.2730 C.3      31   G31       0.2022
    979 O3'       -10.1040  -10.8940  -42.5880 O.3      31   G31      -0.5246
    980 C2'       -12.2620  -11.9290  -42.8960 C.3      31   G31       0.0670
    981 O2'       -12.0670  -12.1880  -41.4780 O.3      31   G31      -0.6139
    982 C1'       -13.6450  -11.3400  -43.1380 C.3      31   G31       0.0191
    983 N1        -14.0180  -11.1120  -48.2520 N.am     31   G31      -0.4787
    984 C2        -13.1620  -10.4280  -47.3790 C.2      31   G31       0.7657
    985 N2        -12.3090   -9.5730  -47.9320 N.pl3    31   G31      -0.9672
    986 N3        -13.1340  -10.6290  -46.0540 N.2      31   G31      -0.6323
    987 C4        -13.9940  -11.6160  -45.6500 C.ar     31   G31       0.1222
    988 C5        -14.9750  -12.2230  -46.4180 C.ar     31   G31       0.1744
    989 C6        -14.8990  -12.1240  -47.8510 C.2      31   G31       0.4770
    990 O6        -15.7880  -12.5300  -48.6330 O.2      31   G31      -0.5597
    991 N7        -15.8460  -12.9650  -45.6100 N.ar     31   G31      -0.5709
    992 C8        -15.3980  -12.7770  -44.3930 C.ar     31   G31       0.1374
    993 N9        -14.3180  -11.9160  -44.3320 N.ar     31   G31       0.0492
    994 OP1        -9.9810   -6.1300  -44.4730 O.co2    31   G31      -0.7760
    995 OP2       -11.0350   -6.7930  -46.7190 O.co2    31   G31      -0.7760
    996 H5'       -12.4522   -7.4709  -42.9607 H        31   G31       0.0679
    997 H5''      -10.7723   -7.9773  -42.6830 H        31   G31       0.0679
    998 H4'       -12.1772   -9.5928  -41.6733 H        31   G31       0.1174
    999 H3'       -11.2349  -10.6735  -44.3523 H        31   G31       0.0615
   1000 H2'       -12.0668  -12.8064  -43.5126 H        31   G31       0.0972
   1001 H1'       -14.2619  -11.5539  -42.2652 H        31   G31       0.2006
   1002 H1        -13.9985  -10.8600  -49.2299 H        31   G31       0.3424
   1003 H8        -15.8302  -13.2485  -43.5228 H        31   G31       0.1640
   1004 H21       -12.3134   -9.4307  -48.9319 H        31   G31       0.4364
   1005 H22       -11.6560   -9.0652  -47.3525 H        31   G31       0.4364
   1006 HO2'      -12.6104  -12.9328  -41.2106 H        31   G31       0.4186
   1007 P          -8.9030  -11.5860  -43.3590 P.3      32   U32       1.1662
   1008 C5'        -8.2490  -12.8150  -41.1470 C.3      32   U32       0.0558
   1009 O5'        -7.8480  -11.9010  -42.1760 O.3      32   U32      -0.4989
   1010 C4'        -7.0920  -13.8140  -40.8980 C.3      32   U32       0.1065
   1011 O4'        -6.7580  -13.9120  -39.5360 O.3      32   U32      -0.3548
   1012 C3'        -7.4730  -15.2150  -41.4230 C.3      32   U32       0.2022
   1013 O3'        -7.1020  -15.3850  -42.7740 O.3      32   U32      -0.5246
   1014 C2'        -6.5760  -16.0450  -40.4670 C.3      32   U32       0.0670
   1015 O2'        -5.3350  -16.2480  -41.0870 O.3      32   U32      -0.6139
   1016 C1'        -6.5600  -15.3060  -39.1570 C.3      32   U32       0.0674
   1017 N1         -7.6800  -15.7110  -38.2710 N.am     32   U32       0.0418
   1018 C2         -7.5240  -16.9000  -37.5490 C.2      32   U32       0.4687
   1019 O2         -6.3990  -17.4140  -37.3940 O.2      32   U32      -0.5477
   1020 N3         -8.6110  -17.2430  -36.7730 N.am     32   U32      -0.3549
   1021 C4         -9.8030  -16.5410  -36.5580 C.2      32   U32       0.5952
   1022 O4        -10.7360  -17.0580  -35.9270 O.2      32   U32      -0.5761
   1023 C5         -9.9710  -15.5140  -37.5790 C.2      32   U32      -0.3635
   1024 C6         -8.9280  -15.1380  -38.3570 C.2      32   U32      -0.1126
   1025 OP1        -8.2970  -10.5750  -44.2920 O.co2    32   U32      -0.7760
   1026 OP2        -9.3820  -12.8950  -43.9270 O.co2    32   U32      -0.7760
   1027 H5'        -9.1404  -13.3566  -41.4636 H        32   U32       0.0679
   1028 H5''       -8.4611  -12.2645  -40.2305 H        32   U32       0.0679
   1029 H4'        -6.2144  -13.4681  -41.4441 H        32   U32       0.1174
   1030 H3'        -8.5306  -15.4281  -41.2673 H        32   U32       0.0615
   1031 H2'        -7.0457  -17.0159  -40.3095 H        32   U32       0.0972
   1032 H1'        -5.6026  -15.4362  -38.6524 H        32   U32       0.1824
   1033 H3         -8.5366  -18.1273  -36.2907 H        32   U32       0.3154
   1034 H5        -10.9359  -15.0488  -37.7163 H        32   U32       0.1811
   1035 H6         -9.0834  -14.3506  -39.0796 H        32   U32       0.2188
   1036 HO2'       -5.3914  -17.0030  -41.6773 H        32   U32       0.4186
   1037 P          -7.7250  -16.5700  -43.6630 P.3      33   C33       1.1662
   1038 C5'        -5.9550  -18.4140  -43.1630 C.3      33   C33       0.0558
   1039 O5'        -7.2270  -17.8880  -42.8800 O.3      33   C33      -0.4989
   1040 C4'        -5.7620  -19.7290  -42.4250 C.3      33   C33       0.1065
   1041 O4'        -6.0530  -19.6090  -41.0460 O.3      33   C33      -0.3548
   1042 C3'        -6.8020  -20.7560  -42.9040 C.3      33   C33       0.2022
   1043 O3'        -6.3560  -21.4110  -44.1250 O.3      33   C33      -0.5246
   1044 C2'        -6.8010  -21.7140  -41.7450 C.3      33   C33       0.0670
   1045 O2'        -5.6600  -22.5780  -41.6930 O.3      33   C33      -0.6139
   1046 C1'        -6.7440  -20.7720  -40.5310 C.3      33   C33       0.0066
   1047 N1         -8.0910  -20.4440  -40.0170 N.am     33   C33      -0.0484
   1048 C2         -8.7130  -21.3610  -39.1460 C.2      33   C33       0.7538
   1049 O2         -8.1010  -22.3770  -38.7840 O.2      33   C33      -0.6252
   1050 N3        -10.0000  -21.1240  -38.8090 N.2      33   C33      -0.7584
   1051 C4        -10.6320  -19.9750  -39.1300 C.2      33   C33       0.8185
   1052 N4        -11.9080  -19.8240  -38.7300 N.pl3    33   C33      -0.9530
   1053 C5        -10.0090  -19.0380  -39.9860 C.2      33   C33      -0.5215
   1054 C6         -8.6840  -19.2250  -40.1940 C.2      33   C33       0.0053
   1055 OP1        -7.1040  -16.5410  -44.9880 O.co2    33   C33      -0.7760
   1056 OP2        -9.1900  -16.5310  -43.5390 O.co2    33   C33      -0.7760
   1057 H5'        -5.8656  -18.5854  -44.2357 H        33   C33       0.0679
   1058 H5''       -5.1909  -17.7047  -42.8448 H        33   C33       0.0679
   1059 H4'        -4.7508  -20.1081  -42.5730 H        33   C33       0.1174
   1060 H3'        -7.7811  -20.2957  -43.0365 H        33   C33       0.0615
   1061 H2'        -7.7217  -22.2973  -41.7319 H        33   C33       0.0972
   1062 H1'        -6.1511  -21.2299  -39.7393 H        33   C33       0.2029
   1063 H5        -10.5542  -18.2261  -40.4441 H        33   C33       0.1928
   1064 H6         -8.0788  -18.3876  -40.5085 H        33   C33       0.1958
   1065 H41       -12.3471  -20.5340  -38.1615 H        33   C33       0.4234
   1066 H42       -12.4269  -19.0001  -38.9985 H        33   C33       0.4234
   1067 HO2'       -5.9288  -23.4765  -41.8982 H        33   C33       0.4186
   1068 P          -7.4110  -22.0760  -45.1170 P.3      34   G34       1.1662
   1069 C5'        -6.9370  -24.5010  -44.3190 C.3      34   G34       0.0558
   1070 O5'        -7.8630  -23.3760  -44.3150 O.3      34   G34      -0.4989
   1071 C4'        -7.4550  -25.5920  -43.3960 C.3      34   G34       0.1065
   1072 O4'        -7.8180  -25.0070  -42.1240 O.3      34   G34      -0.3548
   1073 C3'        -8.7880  -26.1510  -43.9140 C.3      34   G34       0.2022
   1074 O3'        -8.5620  -27.1520  -44.9480 O.3      34   G34      -0.5246
   1075 C2'        -9.3800  -26.7370  -42.6670 C.3      34   G34       0.0670
   1076 O2'        -8.7770  -27.9930  -42.3420 O.3      34   G34      -0.6139
   1077 C1'        -9.0240  -25.6440  -41.6330 C.3      34   G34       0.0191
   1078 N1        -13.4230  -24.3970  -39.3220 N.am     34   G34      -0.4787
   1079 C2        -12.7230  -25.6110  -39.3410 C.2      34   G34       0.7657
   1080 N2        -13.0950  -26.5440  -38.4710 N.pl3    34   G34      -0.9672
   1081 N3        -11.6400  -25.8460  -40.1070 N.2      34   G34      -0.6323
   1082 C4        -11.1500  -24.6950  -40.6630 C.ar     34   G34       0.1222
   1083 C5        -11.7920  -23.4860  -40.7510 C.ar     34   G34       0.1744
   1084 C6        -12.9430  -23.2400  -39.9500 C.2      34   G34       0.4770
   1085 O6        -13.5040  -22.1400  -39.7730 O.2      34   G34      -0.5597
   1086 N7        -11.1000  -22.6180  -41.6170 N.ar     34   G34      -0.5709
   1087 C8        -10.1310  -23.3580  -42.0660 C.ar     34   G34       0.1374
   1088 N9        -10.0960  -24.6410  -41.5760 N.ar     34   G34       0.0492
   1089 OP1        -6.8140  -22.5020  -46.3750 O.co2    34   G34      -0.7760
   1090 OP2        -8.6250  -21.1970  -45.2010 O.co2    34   G34      -0.7760
   1091 H5'        -5.9591  -24.1669  -43.9722 H        34   G34       0.0679
   1092 H5''       -6.8481  -24.8943  -45.3317 H        34   G34       0.0679
   1093 H4'        -6.7175  -26.3846  -43.2695 H        34   G34       0.1174
   1094 H3'        -9.4175  -25.3461  -44.2934 H        34   G34       0.0615
   1095 H2'       -10.4608  -26.8405  -42.7637 H        34   G34       0.0972
   1096 H1'        -8.8549  -26.0837  -40.6501 H        34   G34       0.2006
   1097 H1        -14.3078  -24.3544  -38.8368 H        34   G34       0.3424
   1098 H8         -9.4039  -22.9902  -42.7749 H        34   G34       0.1640
   1099 H21       -13.8797  -26.3784  -37.8570 H        34   G34       0.4364
   1100 H22       -12.5929  -27.4191  -38.4237 H        34   G34       0.4364
   1101 HO2'       -9.1755  -28.3422  -41.5415 H        34   G34       0.4186
   1102 P          -9.7010  -27.3920  -46.0950 P.3      35   U35       1.1662
   1103 C5'       -10.7460  -29.4390  -44.7950 C.3      35   U35       0.0558
   1104 O5'       -10.8990  -28.0640  -45.2400 O.3      35   U35      -0.4989
   1105 C4'       -11.9780  -29.8780  -44.0080 C.3      35   U35       0.1065
   1106 O4'       -12.1490  -29.0900  -42.8060 O.3      35   U35      -0.3548
   1107 C3'       -13.2510  -29.7260  -44.7860 C.3      35   U35       0.2022
   1108 O3'       -13.5200  -30.8500  -45.6460 O.3      35   U35      -0.5246
   1109 C2'       -14.2910  -29.6450  -43.7010 C.3      35   U35       0.0670
   1110 O2'       -14.6410  -30.9920  -43.2770 O.3      35   U35      -0.6139
   1111 C1'       -13.5670  -28.8820  -42.6170 C.3      35   U35       0.0674
   1112 N1        -13.8040  -27.4100  -42.8010 N.am     35   U35       0.0418
   1113 C2        -14.9730  -26.8710  -42.3150 C.2      35   U35       0.4687
   1114 O2        -15.8210  -27.5230  -41.6970 O.2      35   U35      -0.5477
   1115 N3        -15.0220  -25.4570  -42.3440 N.am     35   U35      -0.3549
   1116 C4        -14.1470  -24.6250  -43.0720 C.2      35   U35       0.5952
   1117 O4        -14.3400  -23.3890  -43.0910 O.2      35   U35      -0.5761
   1118 C5        -13.0720  -25.3390  -43.6980 C.2      35   U35      -0.3635
   1119 C6        -12.8190  -26.6400  -43.3680 C.2      35   U35      -0.1126
   1120 OP1        -9.1880  -28.4280  -47.0560 O.co2    35   U35      -0.7760
   1121 OP2       -10.1120  -26.0910  -46.6280 O.co2    35   U35      -0.7760
   1122 H5'       -10.6236  -30.0868  -45.6630 H        35   U35       0.0679
   1123 H5''       -9.8643  -29.5169  -44.1589 H        35   U35       0.0679
   1124 H4'       -11.8608  -30.9248  -43.7277 H        35   U35       0.1174
   1125 H3'       -13.2338  -28.8021  -45.3641 H        35   U35       0.0615
   1126 H2'       -15.1715  -29.1005  -44.0421 H        35   U35       0.0972
   1127 H1'       -13.8837  -29.2102  -41.6270 H        35   U35       0.1824
   1128 H3        -15.7430  -25.0069  -41.7984 H        35   U35       0.3154
   1129 H5        -12.4580  -24.8441  -44.4359 H        35   U35       0.1811
   1130 H6        -11.8429  -27.0635  -43.5533 H        35   U35       0.2188
   1131 HO2'      -15.5292  -31.2013  -43.5753 H        35   U35       0.4186
   1132 P         -14.3590  -30.6550  -47.0400 P.3      36   A36       1.1662
   1133 C5'       -16.6380  -31.4050  -45.9640 C.3      36   A36       0.0558
   1134 O5'       -15.8460  -30.3310  -46.5170 O.3      36   A36      -0.4989
   1135 C4'       -17.8360  -30.8590  -45.2530 C.3      36   A36       0.1065
   1136 O4'       -17.4060  -29.9030  -44.2450 O.3      36   A36      -0.3548
   1137 C3'       -18.8050  -30.0660  -46.0950 C.3      36   A36       0.2022
   1138 O3'       -19.6950  -30.8890  -46.8470 O.3      36   A36      -0.5246
   1139 C2'       -19.5540  -29.3250  -44.9980 C.3      36   A36       0.0670
   1140 O2'       -20.4160  -30.2630  -44.2980 O.3      36   A36      -0.6139
   1141 C1'       -18.3740  -28.8840  -44.1130 C.3      36   A36       0.0394
   1142 N1        -18.9430  -23.8200  -43.4450 N.ar     36   A36      -0.7615
   1143 C2        -19.6520  -24.8760  -43.0210 C.ar     36   A36       0.5875
   1144 N3        -19.4670  -26.1630  -43.2860 N.ar     36   A36      -0.6997
   1145 C4        -18.3780  -26.3560  -44.0860 C.ar     36   A36       0.3053
   1146 C5        -17.4640  -25.3640  -44.4530 C.ar     36   A36       0.0515
   1147 C6        -17.8860  -24.0140  -44.2540 C.ar     36   A36       0.7009
   1148 N6        -17.2610  -22.9550  -44.8230 N.pl3    36   A36      -0.9019
   1149 N7        -16.5560  -25.9190  -45.3210 N.ar     36   A36      -0.6073
   1150 C8        -16.8770  -27.1990  -45.3820 C.ar     36   A36       0.2006
   1151 N9        -17.8900  -27.5460  -44.5320 N.ar     36   A36      -0.0251
   1152 OP1       -14.3350  -31.8850  -47.8210 O.co2    36   A36      -0.7760
   1153 OP2       -13.8520  -29.3870  -47.6560 O.co2    36   A36      -0.7760
   1154 H5'       -16.9672  -32.0601  -46.7706 H        36   A36       0.0679
   1155 H5''      -16.0309  -31.9757  -45.2613 H        36   A36       0.0679
   1156 H4'       -18.3686  -31.6768  -44.7676 H        36   A36       0.1174
   1157 H3'       -18.2762  -29.3688  -46.7449 H        36   A36       0.0615
   1158 H2'       -20.1109  -28.4733  -45.3886 H        36   A36       0.0972
   1159 H1'       -18.7037  -28.8362  -43.0752 H        36   A36       0.2007
   1160 H2        -20.4876  -24.6481  -42.3758 H        36   A36       0.0473
   1161 H8        -16.3872  -27.9024  -46.0390 H        36   A36       0.1553
   1162 H61       -17.2083  -22.1985  -44.1559 H        36   A36       0.4115
   1163 H62       -16.9035  -22.9265  -45.7672 H        36   A36       0.4115
   1164 HO2'      -20.8928  -29.8030  -43.6033 H        36   A36       0.4186
   1165 P         -20.3020  -30.4510  -48.2850 P.3      37   C37       1.1662
   1166 C5'       -22.4810  -29.8570  -46.9600 C.3      37   C37       0.0558
   1167 O5'       -21.5380  -29.5200  -47.9450 O.3      37   C37      -0.4989
   1168 C4'       -23.2770  -28.6620  -46.4640 C.3      37   C37       0.1065
   1169 O4'       -22.4150  -27.6420  -45.8870 O.3      37   C37      -0.3548
   1170 C3'       -24.1080  -28.0850  -47.5900 C.3      37   C37       0.2022
   1171 O3'       -25.4880  -28.4130  -47.4570 O.3      37   C37      -0.6541
   1172 C2'       -23.8810  -26.5880  -47.3800 C.3      37   C37       0.0670
   1173 O2'       -25.0620  -25.8780  -47.0900 O.3      37   C37      -0.6139
   1174 C1'       -22.8340  -26.3180  -46.3020 C.3      37   C37       0.0066
   1175 N1        -21.6740  -25.5440  -46.8560 N.am     37   C37      -0.0484
   1176 C2        -21.8320  -24.1430  -46.8500 C.2      37   C37       0.7538
   1177 O2        -22.9430  -23.6400  -46.6120 O.2      37   C37      -0.6252
   1178 N3        -20.8210  -23.4200  -47.3970 N.2      37   C37      -0.7584
   1179 C4        -19.6280  -23.9820  -47.7200 C.2      37   C37       0.8185
   1180 N4        -18.6530  -23.2070  -48.2480 N.pl3    37   C37      -0.9530
   1181 C5        -19.4800  -25.3820  -47.6990 C.2      37   C37      -0.5215
   1182 C6        -20.5500  -26.1350  -47.2890 C.2      37   C37       0.0053
   1183 OP1       -20.8040  -31.7300  -48.8980 O.co2    37   C37      -0.7760
   1184 OP2       -19.2610  -29.6520  -49.0070 O.co2    37   C37      -0.7760
   1185 H5'       -21.9555  -30.2992  -46.1136 H        37   C37       0.0679
   1186 H5''      -23.1711  -30.5942  -47.3704 H        37   C37       0.0679
   1187 H4'       -23.9571  -29.0088  -45.6860 H        37   C37       0.1174
   1188 H3'       -23.7244  -28.4041  -48.5591 H        37   C37       0.0615
   1189 H2'       -23.4885  -26.1889  -48.3153 H        37   C37       0.0972
   1190 H1'       -23.2816  -25.7825  -45.4648 H        37   C37       0.2029
   1191 H5        -18.5524  -25.8483  -47.9966 H        37   C37       0.1928
   1192 H6        -20.4875  -27.2129  -47.3148 H        37   C37       0.1958
   1193 H41       -18.7882  -22.2095  -48.3308 H        37   C37       0.4234
   1194 H42       -17.7887  -23.6264  -48.5598 H        37   C37       0.4234
   1195 HO2'      -24.8435  -25.0734  -46.6141 H        37   C37       0.4186
   1196 HO3'      -25.6078  -29.3558  -47.5924 H        37   C37       0.4376
@<TRIPOS>BOND
     1    1    2 1
     2    1    3 1
     3    3    5 1
     4    3    4 1
     5    4    9 1
     6    5    7 1
     7    5    6 1
     8    7    9 1
     9    7    8 1
    10    9   20 1
    11   10   11 1
    12   10   16 am
    13   11   12 2
    14   11   13 2
    15   13   14 1
    16   14   20 ar
    17   14   15 ar
    18   15   18 ar
    19   15   16 1
    20   16   17 2
    21   18   19 ar
    22   19   20 ar
    23   33   52 1
    24   33   51 1
    25   33   35 1
    26   34   36 1
    27   34   35 1
    28   36   38 1
    29   36   37 1
    30   37   42 1
    31   38   39 1
    32   38   40 1
    33   40   41 1
    34   40   42 1
    35   42   43 1
    36   43   50 1
    37   43   44 am
    38   44   46 am
    39   44   45 2
    40   46   47 am
    41   47   48 2
    42   47   49 1
    43   49   50 2
    44   33    6 1
    45   63   84 1
    46   63   83 1
    47   63   65 1
    48   64   66 1
    49   64   65 1
    50   66   67 1
    51   66   68 1
    52   67   72 1
    53   68   70 1
    54   68   69 1
    55   70   72 1
    56   70   71 1
    57   72   82 1
    58   73   78 ar
    59   73   74 ar
    60   74   75 ar
    61   75   76 ar
    62   76   77 ar
    63   76   82 ar
    64   77   78 ar
    65   77   80 ar
    66   78   79 1
    67   80   81 ar
    68   81   82 ar
    69   39   63 1
    70   96  115 1
    71   96   98 1
    72   96  114 1
    73   97   98 1
    74   97   99 1
    75   99  101 1
    76   99  100 1
    77  100  105 1
    78  101  103 1
    79  101  102 1
    80  103  104 1
    81  103  105 1
    82  105  106 1
    83  106  107 am
    84  106  113 1
    85  107  108 2
    86  107  109 1
    87  109  110 2
    88  110  112 2
    89  110  111 2
    90  112  113 2
    91   69   96 1
    92  127  148 1
    93  127  149 1
    94  127  129 1
    95  128  129 1
    96  128  130 1
    97  130  132 1
    98  130  131 1
    99  131  136 1
   100  132  134 1
   101  132  133 1
   102  134  136 1
   103  134  135 1
   104  136  147 1
   105  137  138 1
   106  137  143 am
   107  138  139 2
   108  138  140 2
   109  140  141 1
   110  141  147 ar
   111  141  142 ar
   112  142  145 ar
   113  142  143 1
   114  143  144 2
   115  145  146 ar
   116  146  147 ar
   117  102  127 1
   118  161  182 1
   119  161  181 1
   120  161  163 1
   121  162  164 1
   122  162  163 1
   123  164  165 1
   124  164  166 1
   125  165  170 1
   126  166  168 1
   127  166  167 1
   128  168  170 1
   129  168  169 1
   130  170  180 1
   131  171  176 ar
   132  171  172 ar
   133  172  173 ar
   134  173  174 ar
   135  174  175 ar
   136  174  180 ar
   137  175  176 ar
   138  175  178 ar
   139  176  177 1
   140  178  179 ar
   141  179  180 ar
   142  133  161 1
   143  194  215 1
   144  194  214 1
   145  194  196 1
   146  195  197 1
   147  195  196 1
   148  197  198 1
   149  197  199 1
   150  198  203 1
   151  199  201 1
   152  199  200 1
   153  201  203 1
   154  201  202 1
   155  203  213 1
   156  204  209 ar
   157  204  205 ar
   158  205  206 ar
   159  206  207 ar
   160  207  208 ar
   161  207  213 ar
   162  208  209 ar
   163  208  211 ar
   164  209  210 1
   165  211  212 ar
   166  212  213 ar
   167  167  194 1
   168  227  248 1
   169  227  249 1
   170  227  229 1
   171  228  229 1
   172  228  230 1
   173  230  232 1
   174  230  231 1
   175  231  236 1
   176  232  234 1
   177  232  233 1
   178  234  236 1
   179  234  235 1
   180  236  247 1
   181  237  238 1
   182  237  243 am
   183  238  239 2
   184  238  240 2
   185  240  241 1
   186  241  247 ar
   187  241  242 ar
   188  242  245 ar
   189  242  243 1
   190  243  244 2
   191  245  246 ar
   192  246  247 ar
   193  200  227 1
   194  261  282 1
   195  261  283 1
   196  261  263 1
   197  262  263 1
   198  262  264 1
   199  264  266 1
   200  264  265 1
   201  265  270 1
   202  266  268 1
   203  266  267 1
   204  268  270 1
   205  268  269 1
   206  270  281 1
   207  271  272 1
   208  271  277 am
   209  272  273 2
   210  272  274 2
   211  274  275 1
   212  275  281 ar
   213  275  276 ar
   214  276  279 ar
   215  276  277 1
   216  277  278 2
   217  279  280 ar
   218  280  281 ar
   219  233  261 1
   220  295  316 1
   221  295  315 1
   222  295  297 1
   223  296  298 1
   224  296  297 1
   225  298  299 1
   226  298  300 1
   227  299  304 1
   228  300  302 1
   229  300  301 1
   230  302  304 1
   231  302  303 1
   232  304  314 1
   233  305  310 ar
   234  305  306 ar
   235  306  307 ar
   236  307  308 ar
   237  308  309 ar
   238  308  314 ar
   239  309  310 ar
   240  309  312 ar
   241  310  311 1
   242  312  313 ar
   243  313  314 ar
   244  267  295 1
   245  328  349 1
   246  328  348 1
   247  328  330 1
   248  329  331 1
   249  329  330 1
   250  331  332 1
   251  331  333 1
   252  332  337 1
   253  333  335 1
   254  333  334 1
   255  335  337 1
   256  335  336 1
   257  337  347 1
   258  338  343 ar
   259  338  339 ar
   260  339  340 ar
   261  340  341 ar
   262  341  342 ar
   263  341  347 ar
   264  342  343 ar
   265  342  345 ar
   266  343  344 1
   267  345  346 ar
   268  346  347 ar
   269  301  328 1
   270  361  382 1
   271  361  383 1
   272  361  363 1
   273  362  363 1
   274  362  364 1
   275  364  366 1
   276  364  365 1
   277  365  370 1
   278  366  368 1
   279  366  367 1
   280  368  370 1
   281  368  369 1
   282  370  381 1
   283  371  372 1
   284  371  377 am
   285  372  373 2
   286  372  374 2
   287  374  375 1
   288  375  381 ar
   289  375  376 ar
   290  376  379 ar
   291  376  377 1
   292  377  378 2
   293  379  380 ar
   294  380  381 ar
   295  334  361 1
   296  395  416 1
   297  395  417 1
   298  395  397 1
   299  396  397 1
   300  396  398 1
   301  398  400 1
   302  398  399 1
   303  399  404 1
   304  400  402 1
   305  400  401 1
   306  402  404 1
   307  402  403 1
   308  404  415 1
   309  405  406 1
   310  405  411 am
   311  406  407 2
   312  406  408 2
   313  408  409 1
   314  409  415 ar
   315  409  410 ar
   316  410  413 ar
   317  410  411 1
   318  411  412 2
   319  413  414 ar
   320  414  415 ar
   321  367  395 1
   322  429  448 1
   323  429  447 1
   324  429  431 1
   325  430  432 1
   326  430  431 1
   327  432  434 1
   328  432  433 1
   329  433  438 1
   330  434  435 1
   331  434  436 1
   332  436  437 1
   333  436  438 1
   334  438  439 1
   335  439  446 1
   336  439  440 am
   337  440  442 am
   338  440  441 2
   339  442  443 am
   340  443  444 2
   341  443  445 1
   342  445  446 2
   343  401  429 1
   344  459  478 1
   345  459  477 1
   346  459  461 1
   347  460  462 1
   348  460  461 1
   349  462  464 1
   350  462  463 1
   351  463  468 1
   352  464  465 1
   353  464  466 1
   354  466  467 1
   355  466  468 1
   356  468  469 1
   357  469  476 1
   358  469  470 am
   359  470  472 am
   360  470  471 2
   361  472  473 am
   362  473  474 2
   363  473  475 1
   364  475  476 2
   365  435  459 1
   366  489  508 1
   367  489  507 1
   368  489  491 1
   369  490  492 1
   370  490  491 1
   371  492  494 1
   372  492  493 1
   373  493  498 1
   374  494  495 1
   375  494  496 1
   376  496  497 1
   377  496  498 1
   378  498  499 1
   379  499  506 1
   380  499  500 am
   381  500  502 am
   382  500  501 2
   383  502  503 am
   384  503  504 2
   385  503  505 1
   386  505  506 2
   387  465  489 1
   388  519  540 1
   389  519  541 1
   390  519  521 1
   391  520  521 1
   392  520  522 1
   393  522  524 1
   394  522  523 1
   395  523  528 1
   396  524  526 1
   397  524  525 1
   398  526  528 1
   399  526  527 1
   400  528  539 1
   401  529  530 1
   402  529  535 am
   403  530  531 2
   404  530  532 2
   405  532  533 1
   406  533  539 ar
   407  533  534 ar
   408  534  537 ar
   409  534  535 1
   410  535  536 2
   411  537  538 ar
   412  538  539 ar
   413  495  519 1
   414  553  574 1
   415  553  575 1
   416  553  555 1
   417  554  555 1
   418  554  556 1
   419  556  558 1
   420  556  557 1
   421  557  562 1
   422  558  560 1
   423  558  559 1
   424  560  562 1
   425  560  561 1
   426  562  573 1
   427  563  564 1
   428  563  569 am
   429  564  565 2
   430  564  566 2
   431  566  567 1
   432  567  573 ar
   433  567  568 ar
   434  568  571 ar
   435  568  569 1
   436  569  570 2
   437  571  572 ar
   438  572  573 ar
   439  525  553 1
   440  587  606 1
   441  587  605 1
   442  587  589 1
   443  588  590 1
   444  588  589 1
   445  590  592 1
   446  590  591 1
   447  591  596 1
   448  592  593 1
   449  592  594 1
   450  594  595 1
   451  594  596 1
   452  596  597 1
   453  597  604 1
   454  597  598 am
   455  598  600 am
   456  598  599 2
   457  600  601 am
   458  601  602 2
   459  601  603 1
   460  603  604 2
   461  559  587 1
   462  617  638 1
   463  617  637 1
   464  617  619 1
   465  618  620 1
   466  618  619 1
   467  620  621 1
   468  620  622 1
   469  621  626 1
   470  622  624 1
   471  622  623 1
   472  624  626 1
   473  624  625 1
   474  626  636 1
   475  627  632 ar
   476  627  628 ar
   477  628  629 ar
   478  629  630 ar
   479  630  631 ar
   480  630  636 ar
   481  631  632 ar
   482  631  634 ar
   483  632  633 1
   484  634  635 ar
   485  635  636 ar
   486  593  617 1
   487  650  669 1
   488  650  668 1
   489  650  652 1
   490  651  653 1
   491  651  652 1
   492  653  655 1
   493  653  654 1
   494  654  659 1
   495  655  656 1
   496  655  657 1
   497  657  658 1
   498  657  659 1
   499  659  660 1
   500  660  667 1
   501  660  661 am
   502  661  663 am
   503  661  662 2
   504  663  664 am
   505  664  665 2
   506  664  666 1
   507  666  667 2
   508  623  650 1
   509  680  701 1
   510  680  702 1
   511  680  682 1
   512  681  682 1
   513  681  683 1
   514  683  685 1
   515  683  684 1
   516  684  689 1
   517  685  687 1
   518  685  686 1
   519  687  689 1
   520  687  688 1
   521  689  700 1
   522  690  691 1
   523  690  696 am
   524  691  692 2
   525  691  693 2
   526  693  694 1
   527  694  700 ar
   528  694  695 ar
   529  695  698 ar
   530  695  696 1
   531  696  697 2
   532  698  699 ar
   533  699  700 ar
   534  656  680 1
   535  714  735 1
   536  714  736 1
   537  714  716 1
   538  715  716 1
   539  715  717 1
   540  717  719 1
   541  717  718 1
   542  718  723 1
   543  719  721 1
   544  719  720 1
   545  721  723 1
   546  721  722 1
   547  723  734 1
   548  724  725 1
   549  724  730 am
   550  725  726 2
   551  725  727 2
   552  727  728 1
   553  728  734 ar
   554  728  729 ar
   555  729  732 ar
   556  729  730 1
   557  730  731 2
   558  732  733 ar
   559  733  734 ar
   560  686  714 1
   561  748  769 1
   562  748  770 1
   563  748  750 1
   564  749  750 1
   565  749  751 1
   566  751  753 1
   567  751  752 1
   568  752  757 1
   569  753  755 1
   570  753  754 1
   571  755  757 1
   572  755  756 1
   573  757  768 1
   574  758  759 1
   575  758  764 am
   576  759  760 2
   577  759  761 2
   578  761  762 1
   579  762  768 ar
   580  762  763 ar
   581  763  766 ar
   582  763  764 1
   583  764  765 2
   584  766  767 ar
   585  767  768 ar
   586  720  748 1
   587  782  803 1
   588  782  804 1
   589  782  784 1
   590  783  784 1
   591  783  785 1
   592  785  787 1
   593  785  786 1
   594  786  791 1
   595  787  789 1
   596  787  788 1
   597  789  791 1
   598  789  790 1
   599  791  802 1
   600  792  793 1
   601  792  798 am
   602  793  794 2
   603  793  795 2
   604  795  796 1
   605  796  802 ar
   606  796  797 ar
   607  797  800 ar
   608  797  798 1
   609  798  799 2
   610  800  801 ar
   611  801  802 ar
   612  754  782 1
   613  816  835 1
   614  816  834 1
   615  816  818 1
   616  817  819 1
   617  817  818 1
   618  819  821 1
   619  819  820 1
   620  820  825 1
   621  821  822 1
   622  821  823 1
   623  823  824 1
   624  823  825 1
   625  825  826 1
   626  826  833 1
   627  826  827 am
   628  827  829 am
   629  827  828 2
   630  829  830 am
   631  830  831 2
   632  830  832 1
   633  832  833 2
   634  788  816 1
   635  846  867 1
   636  846  866 1
   637  846  848 1
   638  847  849 1
   639  847  848 1
   640  849  850 1
   641  849  851 1
   642  850  855 1
   643  851  853 1
   644  851  852 1
   645  853  855 1
   646  853  854 1
   647  855  865 1
   648  856  861 ar
   649  856  857 ar
   650  857  858 ar
   651  858  859 ar
   652  859  860 ar
   653  859  865 ar
   654  860  861 ar
   655  860  863 ar
   656  861  862 1
   657  863  864 ar
   658  864  865 ar
   659  822  846 1
   660  879  900 1
   661  879  901 1
   662  879  881 1
   663  880  881 1
   664  880  882 1
   665  882  884 1
   666  882  883 1
   667  883  888 1
   668  884  886 1
   669  884  885 1
   670  886  888 1
   671  886  887 1
   672  888  899 1
   673  889  890 1
   674  889  895 am
   675  890  891 2
   676  890  892 2
   677  892  893 1
   678  893  899 ar
   679  893  894 ar
   680  894  897 ar
   681  894  895 1
   682  895  896 2
   683  897  898 ar
   684  898  899 ar
   685  852  879 1
   686  913  932 1
   687  913  931 1
   688  913  915 1
   689  914  916 1
   690  914  915 1
   691  916  918 1
   692  916  917 1
   693  917  922 1
   694  918  919 1
   695  918  920 1
   696  920  921 1
   697  920  922 1
   698  922  923 1
   699  923  930 1
   700  923  924 am
   701  924  926 am
   702  924  925 2
   703  926  927 am
   704  927  928 2
   705  927  929 1
   706  929  930 2
   707  885  913 1
   708  943  962 1
   709  943  961 1
   710  943  945 1
   711  944  946 1
   712  944  945 1
   713  946  948 1
   714  946  947 1
   715  947  952 1
   716  948  949 1
   717  948  950 1
   718  950  951 1
   719  950  952 1
   720  952  953 1
   721  953  960 1
   722  953  954 am
   723  954  956 am
   724  954  955 2
   725  956  957 am
   726  957  958 2
   727  957  959 1
   728  959  960 2
   729  919  943 1
   730  973  994 1
   731  973  995 1
   732  973  975 1
   733  974  975 1
   734  974  976 1
   735  976  978 1
   736  976  977 1
   737  977  982 1
   738  978  980 1
   739  978  979 1
   740  980  982 1
   741  980  981 1
   742  982  993 1
   743  983  984 1
   744  983  989 am
   745  984  985 2
   746  984  986 2
   747  986  987 1
   748  987  993 ar
   749  987  988 ar
   750  988  991 ar
   751  988  989 1
   752  989  990 2
   753  991  992 ar
   754  992  993 ar
   755  949  973 1
   756 1007 1026 1
   757 1007 1025 1
   758 1007 1009 1
   759 1008 1010 1
   760 1008 1009 1
   761 1010 1012 1
   762 1010 1011 1
   763 1011 1016 1
   764 1012 1013 1
   765 1012 1014 1
   766 1014 1015 1
   767 1014 1016 1
   768 1016 1017 1
   769 1017 1024 1
   770 1017 1018 am
   771 1018 1020 am
   772 1018 1019 2
   773 1020 1021 am
   774 1021 1022 2
   775 1021 1023 1
   776 1023 1024 2
   777  979 1007 1
   778 1037 1056 1
   779 1037 1039 1
   780 1037 1055 1
   781 1038 1039 1
   782 1038 1040 1
   783 1040 1042 1
   784 1040 1041 1
   785 1041 1046 1
   786 1042 1044 1
   787 1042 1043 1
   788 1044 1045 1
   789 1044 1046 1
   790 1046 1047 1
   791 1047 1048 am
   792 1047 1054 1
   793 1048 1049 2
   794 1048 1050 1
   795 1050 1051 2
   796 1051 1053 2
   797 1051 1052 2
   798 1053 1054 2
   799 1013 1037 1
   800 1068 1089 1
   801 1068 1090 1
   802 1068 1070 1
   803 1069 1070 1
   804 1069 1071 1
   805 1071 1073 1
   806 1071 1072 1
   807 1072 1077 1
   808 1073 1075 1
   809 1073 1074 1
   810 1075 1077 1
   811 1075 1076 1
   812 1077 1088 1
   813 1078 1079 1
   814 1078 1084 am
   815 1079 1080 2
   816 1079 1081 2
   817 1081 1082 1
   818 1082 1088 ar
   819 1082 1083 ar
   820 1083 1086 ar
   821 1083 1084 1
   822 1084 1085 2
   823 1086 1087 ar
   824 1087 1088 ar
   825 1043 1068 1
   826 1102 1121 1
   827 1102 1120 1
   828 1102 1104 1
   829 1103 1105 1
   830 1103 1104 1
   831 1105 1107 1
   832 1105 1106 1
   833 1106 1111 1
   834 1107 1108 1
   835 1107 1109 1
   836 1109 1110 1
   837 1109 1111 1
   838 1111 1112 1
   839 1112 1119 1
   840 1112 1113 am
   841 1113 1115 am
   842 1113 1114 2
   843 1115 1116 am
   844 1116 1117 2
   845 1116 1118 1
   846 1118 1119 2
   847 1074 1102 1
   848 1132 1153 1
   849 1132 1152 1
   850 1132 1134 1
   851 1133 1135 1
   852 1133 1134 1
   853 1135 1136 1
   854 1135 1137 1
   855 1136 1141 1
   856 1137 1139 1
   857 1137 1138 1
   858 1139 1141 1
   859 1139 1140 1
   860 1141 1151 1
   861 1142 1147 ar
   862 1142 1143 ar
   863 1143 1144 ar
   864 1144 1145 ar
   865 1145 1146 ar
   866 1145 1151 ar
   867 1146 1147 ar
   868 1146 1149 ar
   869 1147 1148 1
   870 1149 1150 ar
   871 1150 1151 ar
   872 1108 1132 1
   873 1166 1167 1
   874 1166 1168 1
   875 1168 1170 1
   876 1168 1169 1
   877 1169 1174 1
   878 1170 1172 1
   879 1170 1171 1
   880 1172 1173 1
   881 1172 1174 1
   882 1174 1175 1
   883 1175 1182 1
   884 1175 1176 am
   885 1176 1177 2
   886 1176 1178 1
   887 1178 1179 2
   888 1179 1181 2
   889 1179 1180 2
   890 1181 1182 2
   891 1165 1167 1
   892 1165 1183 1
   893 1165 1184 1
   894 1138 1165 1
   895   21    1 1
   896   22    1 1
   897   23    3 1
   898   24    5 1
   899   25    7 1
   900   26    9 1
   901   27   10 1
   902   28   19 1
   903   53   34 1
   904   54   34 1
   905   55   36 1
   906   56   38 1
   907   57   40 1
   908   58   42 1
   909   59   46 1
   910   60   49 1
   911   61   50 1
   912   85   64 1
   913   86   64 1
   914   87   66 1
   915   88   68 1
   916   89   70 1
   917   90   72 1
   918   91   74 1
   919   92   81 1
   920  116   97 1
   921  117   97 1
   922  118   99 1
   923  119  101 1
   924  120  103 1
   925  121  105 1
   926  122  112 1
   927  123  113 1
   928  150  128 1
   929  151  128 1
   930  152  130 1
   931  153  132 1
   932  154  134 1
   933  155  136 1
   934  156  137 1
   935  157  146 1
   936  183  162 1
   937  184  162 1
   938  185  164 1
   939  186  166 1
   940  187  168 1
   941  188  170 1
   942  189  172 1
   943  190  179 1
   944  216  195 1
   945  217  195 1
   946  218  197 1
   947  219  199 1
   948  220  201 1
   949  221  203 1
   950  222  205 1
   951  223  212 1
   952  250  228 1
   953  251  228 1
   954  252  230 1
   955  253  232 1
   956  254  234 1
   957  255  236 1
   958  256  237 1
   959  257  246 1
   960  284  262 1
   961  285  262 1
   962  286  264 1
   963  287  266 1
   964  288  268 1
   965  289  270 1
   966  290  271 1
   967  291  280 1
   968  317  296 1
   969  318  296 1
   970  319  298 1
   971  320  300 1
   972  321  302 1
   973  322  304 1
   974  323  306 1
   975  324  313 1
   976  350  329 1
   977  351  329 1
   978  352  331 1
   979  353  333 1
   980  354  335 1
   981  355  337 1
   982  356  339 1
   983  357  346 1
   984  384  362 1
   985  385  362 1
   986  386  364 1
   987  387  366 1
   988  388  368 1
   989  389  370 1
   990  390  371 1
   991  391  380 1
   992  418  396 1
   993  419  396 1
   994  420  398 1
   995  421  400 1
   996  422  402 1
   997  423  404 1
   998  424  405 1
   999  425  414 1
  1000  449  430 1
  1001  450  430 1
  1002  451  432 1
  1003  452  434 1
  1004  453  436 1
  1005  454  438 1
  1006  455  442 1
  1007  456  445 1
  1008  457  446 1
  1009  479  460 1
  1010  480  460 1
  1011  481  462 1
  1012  482  464 1
  1013  483  466 1
  1014  484  468 1
  1015  485  472 1
  1016  486  475 1
  1017  487  476 1
  1018  509  490 1
  1019  510  490 1
  1020  511  492 1
  1021  512  494 1
  1022  513  496 1
  1023  514  498 1
  1024  515  502 1
  1025  516  505 1
  1026  517  506 1
  1027  542  520 1
  1028  543  520 1
  1029  544  522 1
  1030  545  524 1
  1031  546  526 1
  1032  547  528 1
  1033  548  529 1
  1034  549  538 1
  1035  576  554 1
  1036  577  554 1
  1037  578  556 1
  1038  579  558 1
  1039  580  560 1
  1040  581  562 1
  1041  582  563 1
  1042  583  572 1
  1043  607  588 1
  1044  608  588 1
  1045  609  590 1
  1046  610  592 1
  1047  611  594 1
  1048  612  596 1
  1049  613  600 1
  1050  614  603 1
  1051  615  604 1
  1052  639  618 1
  1053  640  618 1
  1054  641  620 1
  1055  642  622 1
  1056  643  624 1
  1057  644  626 1
  1058  645  628 1
  1059  646  635 1
  1060  670  651 1
  1061  671  651 1
  1062  672  653 1
  1063  673  655 1
  1064  674  657 1
  1065  675  659 1
  1066  676  663 1
  1067  677  666 1
  1068  678  667 1
  1069  703  681 1
  1070  704  681 1
  1071  705  683 1
  1072  706  685 1
  1073  707  687 1
  1074  708  689 1
  1075  709  690 1
  1076  710  699 1
  1077  737  715 1
  1078  738  715 1
  1079  739  717 1
  1080  740  719 1
  1081  741  721 1
  1082  742  723 1
  1083  743  724 1
  1084  744  733 1
  1085  771  749 1
  1086  772  749 1
  1087  773  751 1
  1088  774  753 1
  1089  775  755 1
  1090  776  757 1
  1091  777  758 1
  1092  778  767 1
  1093  805  783 1
  1094  806  783 1
  1095  807  785 1
  1096  808  787 1
  1097  809  789 1
  1098  810  791 1
  1099  811  792 1
  1100  812  801 1
  1101  836  817 1
  1102  837  817 1
  1103  838  819 1
  1104  839  821 1
  1105  840  823 1
  1106  841  825 1
  1107  842  829 1
  1108  843  832 1
  1109  844  833 1
  1110  868  847 1
  1111  869  847 1
  1112  870  849 1
  1113  871  851 1
  1114  872  853 1
  1115  873  855 1
  1116  874  857 1
  1117  875  864 1
  1118  902  880 1
  1119  903  880 1
  1120  904  882 1
  1121  905  884 1
  1122  906  886 1
  1123  907  888 1
  1124  908  889 1
  1125  909  898 1
  1126  933  914 1
  1127  934  914 1
  1128  935  916 1
  1129  936  918 1
  1130  937  920 1
  1131  938  922 1
  1132  939  926 1
  1133  940  929 1
  1134  941  930 1
  1135  963  944 1
  1136  964  944 1
  1137  965  946 1
  1138  966  948 1
  1139  967  950 1
  1140  968  952 1
  1141  969  956 1
  1142  970  959 1
  1143  971  960 1
  1144  996  974 1
  1145  997  974 1
  1146  998  976 1
  1147  999  978 1
  1148 1000  980 1
  1149 1001  982 1
  1150 1002  983 1
  1151 1003  992 1
  1152 1027 1008 1
  1153 1028 1008 1
  1154 1029 1010 1
  1155 1030 1012 1
  1156 1031 1014 1
  1157 1032 1016 1
  1158 1033 1020 1
  1159 1034 1023 1
  1160 1035 1024 1
  1161 1057 1038 1
  1162 1058 1038 1
  1163 1059 1040 1
  1164 1060 1042 1
  1165 1061 1044 1
  1166 1062 1046 1
  1167 1063 1053 1
  1168 1064 1054 1
  1169 1091 1069 1
  1170 1092 1069 1
  1171 1093 1071 1
  1172 1094 1073 1
  1173 1095 1075 1
  1174 1096 1077 1
  1175 1097 1078 1
  1176 1098 1087 1
  1177 1122 1103 1
  1178 1123 1103 1
  1179 1124 1105 1
  1180 1125 1107 1
  1181 1126 1109 1
  1182 1127 1111 1
  1183 1128 1115 1
  1184 1129 1118 1
  1185 1130 1119 1
  1186 1154 1133 1
  1187 1155 1133 1
  1188 1156 1135 1
  1189 1157 1137 1
  1190 1158 1139 1
  1191 1159 1141 1
  1192 1160 1143 1
  1193 1161 1150 1
  1194 1185 1166 1
  1195 1186 1166 1
  1196 1187 1168 1
  1197 1188 1170 1
  1198 1189 1172 1
  1199 1190 1174 1
  1200 1191 1181 1
  1201 1192 1182 1
  1202   29   12 1
  1203   30   12 1
  1204  124  111 1
  1205  125  111 1
  1206  158  139 1
  1207  159  139 1
  1208  258  239 1
  1209  259  239 1
  1210  292  273 1
  1211  293  273 1
  1212  392  373 1
  1213  393  373 1
  1214  426  407 1
  1215  427  407 1
  1216  550  531 1
  1217  551  531 1
  1218  584  565 1
  1219  585  565 1
  1220  711  692 1
  1221  712  692 1
  1222  745  726 1
  1223  746  726 1
  1224  779  760 1
  1225  780  760 1
  1226  813  794 1
  1227  814  794 1
  1228  910  891 1
  1229  911  891 1
  1230 1004  985 1
  1231 1005  985 1
  1232 1065 1052 1
  1233 1066 1052 1
  1234 1099 1080 1
  1235 1100 1080 1
  1236 1193 1180 1
  1237 1194 1180 1
  1238  294  269 1
  1239  458  437 1
  1240  616  595 1
  1241  488  467 1
  1242  586  561 1
  1243  358  336 1
  1244 1036 1015 1
  1245  747  722 1
  1246 1195 1173 1
  1247  224  202 1
  1248 1131 1110 1
  1249  876  854 1
  1250  160  135 1
  1251   31    8 1
  1252  260  235 1
  1253  647  625 1
  1254  428  403 1
  1255 1067 1045 1
  1256  972  951 1
  1257  191  169 1
  1258  815  790 1
  1259  912  887 1
  1260  518  497 1
  1261  359  344 1
  1262  360  344 1
  1263  225  210 1
  1264  226  210 1
  1265  877  862 1
  1266  878  862 1
  1267  325  311 1
  1268  326  311 1
  1269  192  177 1
  1270  193  177 1
  1271  648  633 1
  1272  649  633 1
  1273 1162 1148 1
  1274 1163 1148 1
  1275   93   79 1
  1276   94   79 1
  1277  126  104 1
  1278  781  756 1
  1279 1101 1076 1
  1280  942  921 1
  1281  327  303 1
  1282  713  688 1
  1283  552  527 1
  1284  679  658 1
  1285 1006  981 1
  1286  845  824 1
  1287  394  369 1
  1288   62   41 1
  1289 1196 1171 1
  1290 1164 1140 1
  1291   95   71 1
  1292   32    2 1
@<TRIPOS>SUBSTRUCTURE
     1   G1        3 RESIDUE           4 A       G     1 ROOT
     2   U2       36 RESIDUE           4 A       U     2
     3   A3       66 RESIDUE           4 A       A     2
     4   C4       99 RESIDUE           4 A       C     2
     5   G5      130 RESIDUE           4 A       G     2
     6   A6      164 RESIDUE           4 A       A     2
     7   A7      197 RESIDUE           4 A       A     2
     8   G8      230 RESIDUE           4 A       G     2
     9   G9      264 RESIDUE           4 A       G     2
    10   A10     298 RESIDUE           4 A       A     2
    11   A11     331 RESIDUE           4 A       A     2
    12   G12     364 RESIDUE           4 A       G     2
    13   G13     398 RESIDUE           4 A       G     2
    14   U14     432 RESIDUE           4 A       U     2
    15   U15     462 RESIDUE           4 A       U     2
    16   U16     492 RESIDUE           4 A       U     2
    17   G17     522 RESIDUE           4 A       G     2
    18   G18     556 RESIDUE           4 A       G     2
    19   U19     590 RESIDUE           4 A       U     2
    20   A20     620 RESIDUE           4 A       A     2
    21   U21     653 RESIDUE           4 A       U     2
    22   G22     683 RESIDUE           4 A       G     2
    23   G23     717 RESIDUE           4 A       G     2
    24   G24     751 RESIDUE           4 A       G     2
    25   G25     785 RESIDUE           4 A       G     2
    26   U26     819 RESIDUE           4 A       U     2
    27   A27     849 RESIDUE           4 A       A     2
    28   G28     882 RESIDUE           4 A       G     2
    29   U29     916 RESIDUE           4 A       U     2
    30   U30     946 RESIDUE           4 A       U     2
    31   G31     976 RESIDUE           4 A       G     2
    32   U32    1010 RESIDUE           4 A       U     2
    33   C33    1040 RESIDUE           4 A       C     2
    34   G34    1071 RESIDUE           4 A       G     2
    35   U35    1105 RESIDUE           4 A       U     2
    36   A36    1135 RESIDUE           4 A       A     2
    37   C37    1168 RESIDUE           4 A       C     1
