@<TRIPOS>MOLECULE
23_RNAComposerHuman_3.pdb
1196 1292 37 0 0
NUCLEIC_ACID
AMBER ff14SB


@<TRIPOS>ATOM
      1 C5'       -24.5710  -19.0390  -41.0360 C.3       1   G1        0.0558
      2 O5'       -23.3720  -18.6440  -41.7700 O.3       1   G1       -0.6223
      3 C4'       -25.4600  -19.7940  -42.0490 C.3       1   G1        0.1065
      4 O4'       -25.8640  -18.9370  -43.1180 O.3       1   G1       -0.3548
      5 C3'       -24.7400  -20.9930  -42.6790 C.3       1   G1        0.2022
      6 O3'       -25.6240  -22.0670  -42.9960 O.3       1   G1       -0.5246
      7 C2'       -24.1150  -20.3560  -43.9260 C.3       1   G1        0.0670
      8 O2'       -23.9740  -21.2100  -45.0530 O.3       1   G1       -0.6139
      9 C1'       -25.0800  -19.2280  -44.2740 C.3       1   G1        0.0191
     10 N1        -21.9170  -17.3900  -47.8940 N.am      1   G1       -0.4787
     11 C2        -22.1270  -18.6640  -47.4950 C.2       1   G1        0.7657
     12 N2        -21.5570  -19.6130  -48.1830 N.pl3     1   G1       -0.9672
     13 N3        -22.9490  -19.0300  -46.5180 N.2       1   G1       -0.6323
     14 C4        -23.5100  -17.9690  -45.8630 C.ar      1   G1        0.1222
     15 C5        -23.3480  -16.6320  -46.1720 C.ar      1   G1        0.1744
     16 C6        -22.4950  -16.2940  -47.2880 C.2       1   G1        0.4770
     17 O6        -22.2740  -15.2000  -47.8050 O.2       1   G1       -0.5597
     18 N7        -24.1200  -15.8430  -45.3080 N.ar      1   G1       -0.5709
     19 C8        -24.6560  -16.7120  -44.4940 C.ar      1   G1        0.1374
     20 N9        -24.3840  -18.0220  -44.7940 N.ar      1   G1        0.0492
     21 H5'       -24.3077  -19.6913  -40.2034 H         1   G1        0.0679
     22 H5''      -25.0919  -18.1551  -40.6679 H         1   G1        0.0679
     23 H4'       -26.3506  -20.1528  -41.5330 H         1   G1        0.1174
     24 H3'       -23.9545  -21.3456  -42.0106 H         1   G1        0.0615
     25 H2'       -23.1436  -19.9341  -43.6682 H         1   G1        0.0972
     26 H1'       -25.7517  -19.5895  -45.0526 H         1   G1        0.2006
     27 H1        -21.3025  -17.2316  -48.6798 H         1   G1        0.3424
     28 H8        -25.2655  -16.4218  -43.6510 H         1   G1        0.1640
     29 H21       -21.7186  -20.5800  -47.9404 H         1   G1        0.4364
     30 H22       -20.9535  -19.3813  -48.9590 H         1   G1        0.4364
     31 HO2'      -23.4913  -20.7511  -45.7444 H         1   G1        0.4186
     32 HO5'      -22.7340  -18.0677  -41.3429 H         1   G1        0.4295
     33 P         -26.0920  -23.1010  -41.8670 P.3       2   U2        1.1662
     34 C5'       -23.8150  -24.5100  -41.4860 C.3       2   U2        0.0558
     35 O5'       -24.7300  -23.4840  -41.0830 O.3       2   U2       -0.4989
     36 C4'       -23.0160  -24.2650  -42.7850 C.3       2   U2        0.1065
     37 O4'       -22.4320  -22.9710  -42.8880 O.3       2   U2       -0.3548
     38 C3'       -21.8060  -25.2100  -42.9470 C.3       2   U2        0.2022
     39 O3'       -22.1200  -26.4430  -43.5850 O.3       2   U2       -0.5246
     40 C2'       -20.8170  -24.3550  -43.7780 C.3       2   U2        0.0670
     41 O2'       -20.4670  -24.9040  -45.0350 O.3       2   U2       -0.6139
     42 C1'       -21.5850  -23.0620  -44.0180 C.3       2   U2        0.0674
     43 N1        -20.7000  -21.8910  -44.2730 N.am      2   U2        0.0418
     44 C2        -20.4910  -21.5090  -45.6080 C.2       2   U2        0.4687
     45 O2        -21.1620  -21.9130  -46.5610 O.2       2   U2       -0.5477
     46 N3        -19.5970  -20.4860  -45.8310 N.am      2   U2       -0.3549
     47 C4        -18.9690  -19.7460  -44.8690 C.2       2   U2        0.5952
     48 O4        -18.3480  -18.7550  -45.2200 O.2       2   U2       -0.5761
     49 C5        -19.2280  -20.1820  -43.5150 C.2       2   U2       -0.3635
     50 C6        -20.0490  -21.2360  -43.2480 C.2       2   U2       -0.1126
     51 OP1       -26.6410  -24.3070  -42.5270 O.co2     2   U2       -0.7760
     52 OP2       -26.9630  -22.3540  -40.9300 O.co2     2   U2       -0.7760
     53 H5'       -24.3880  -25.4274  -41.6204 H         2   U2        0.0679
     54 H5''      -23.1043  -24.6691  -40.6750 H         2   U2        0.0679
     55 H4'       -23.6840  -24.4108  -43.6339 H         2   U2        0.1174
     56 H3'       -21.3727  -25.4115  -41.9673 H         2   U2        0.0615
     57 H2'       -19.9181  -24.1526  -43.1957 H         2   U2        0.0972
     58 H1'       -22.2136  -23.2042  -44.8970 H         2   U2        0.1824
     59 H3        -19.3861  -20.2621  -46.7930 H         2   U2        0.3154
     60 H5        -18.7589  -19.6591  -42.6947 H         2   U2        0.1811
     61 H6        -20.1911  -21.5607  -42.2278 H         2   U2        0.2188
     62 HO2'      -19.5113  -24.9151  -45.1250 H         2   U2        0.4186
     63 P         -21.2250  -27.7480  -43.3030 P.3       3   A3        1.1662
     64 C5'       -18.7860  -27.7860  -44.3890 C.3       3   A3        0.0558
     65 O5'       -19.6970  -27.2120  -43.4550 O.3       3   A3       -0.4989
     66 C4'       -17.4910  -26.9810  -44.6490 C.3       3   A3        0.1065
     67 O4'       -17.7140  -25.5740  -44.6670 O.3       3   A3       -0.3548
     68 C3'       -16.3110  -27.1820  -43.6890 C.3       3   A3        0.2022
     69 O3'       -15.6120  -28.3860  -43.9910 O.3       3   A3       -0.5246
     70 C2'       -15.4740  -25.9210  -44.0080 C.3       3   A3        0.0670
     71 O2'       -14.4350  -26.1560  -44.9450 O.3       3   A3       -0.6139
     72 C1'       -16.4300  -24.9720  -44.7280 C.3       3   A3        0.0394
     73 N1        -14.6230  -20.2680  -45.7150 N.ar      3   A3       -0.7615
     74 C2        -14.6110  -21.3980  -46.4030 C.ar      3   A3        0.5875
     75 N3        -15.1560  -22.5680  -46.0850 N.ar      3   A3       -0.6997
     76 C4        -15.7310  -22.5380  -44.8480 C.ar      3   A3        0.3053
     77 C5        -15.8070  -21.4650  -43.9980 C.ar      3   A3        0.0515
     78 C6        -15.2100  -20.2810  -44.5150 C.ar      3   A3        0.7009
     79 N6        -15.1910  -19.1090  -43.9180 N.pl3     3   A3       -0.9019
     80 N7        -16.4920  -21.8200  -42.8210 N.ar      3   A3       -0.6073
     81 C8        -16.7600  -23.0870  -42.9970 C.ar      3   A3        0.2006
     82 N9        -16.3570  -23.5860  -44.2090 N.ar      3   A3       -0.0251
     83 OP1       -21.5100  -28.7170  -44.3880 O.co2     3   A3       -0.7760
     84 OP2       -21.4700  -28.1420  -41.9020 O.co2     3   A3       -0.7760
     85 H5'       -18.4991  -28.7689  -44.0151 H         3   A3        0.0679
     86 H5''      -19.3050  -27.9177  -45.3384 H         3   A3        0.0679
     87 H4'       -17.1406  -27.2583  -45.6432 H         3   A3        0.1174
     88 H3'       -16.6464  -27.1754  -42.6519 H         3   A3        0.0615
     89 H2'       -15.0846  -25.4680  -43.0963 H         3   A3        0.0972
     90 H1'       -16.1329  -24.9435  -45.7763 H         3   A3        0.2007
     91 H2        -14.0894  -21.3656  -47.3481 H         3   A3        0.0473
     92 H8        -17.2567  -23.6898  -42.2512 H         3   A3        0.1553
     93 HO2'      -13.6839  -25.5951  -44.7380 H         3   A3        0.4186
     94 H61       -15.0625  -18.5471  -44.7474 H         3   A3        0.4115
     95 H62       -15.2771  -18.8535  -42.9446 H         3   A3        0.4115
     96 P         -14.5300  -29.0130  -42.9800 P.3       4   C4        1.1662
     97 C5'       -12.1930  -27.8730  -43.5700 C.3       4   C4        0.0558
     98 O5'       -13.3870  -27.8720  -42.7880 O.3       4   C4       -0.4989
     99 C4'       -11.3670  -26.5640  -43.5490 C.3       4   C4        0.1065
    100 O4'       -12.1690  -25.3870  -43.5100 O.3       4   C4       -0.3548
    101 C3'       -10.3680  -26.3870  -42.4040 C.3       4   C4        0.2022
    102 O3'        -9.2210  -27.1980  -42.6440 O.3       4   C4       -0.5246
    103 C2'       -10.0870  -24.8690  -42.5140 C.3       4   C4        0.0670
    104 O2'        -8.9530  -24.5950  -43.3200 O.3       4   C4       -0.6139
    105 C1'       -11.2970  -24.2880  -43.2600 C.3       4   C4        0.0066
    106 N1        -11.9650  -23.1710  -42.5270 N.am      4   C4       -0.0484
    107 C2        -11.9250  -21.8720  -43.0620 C.2       4   C4        0.7538
    108 O2        -11.3180  -21.6070  -44.0980 O.2       4   C4       -0.6252
    109 N3        -12.5400  -20.8440  -42.4270 N.2       4   C4       -0.7584
    110 C4        -13.1240  -21.0740  -41.2720 C.2       4   C4        0.8185
    111 N4        -13.6500  -20.0370  -40.6870 N.pl3     4   C4       -0.9530
    112 C5        -13.1520  -22.3540  -40.6520 C.2       4   C4       -0.5215
    113 C6        -12.5650  -23.3840  -41.3100 C.2       4   C4        0.0053
    114 OP1       -13.9380  -30.1780  -43.6790 O.co2     4   C4       -0.7760
    115 OP2       -15.2270  -29.2250  -41.6970 O.co2     4   C4       -0.7760
    116 H5'       -11.5543  -28.6761  -43.2023 H         4   C4        0.0679
    117 H5''      -12.4602  -28.0933  -44.6035 H         4   C4        0.0679
    118 H4'       -10.7972  -26.5313  -44.4776 H         4   C4        0.1174
    119 H3'       -10.8254  -26.6312  -41.4452 H         4   C4        0.0615
    120 H2'        -9.9831  -24.4183  -41.5270 H         4   C4        0.0972
    121 H1'       -10.9512  -23.9045  -44.2199 H         4   C4        0.2029
    122 H5        -13.6239  -22.5001  -39.6916 H         4   C4        0.1928
    123 H6        -12.5692  -24.3732  -40.8766 H         4   C4        0.1958
    124 H41       -13.6080  -19.1310  -41.1314 H         4   C4        0.4234
    125 H42       -14.1002  -20.1383  -39.7886 H         4   C4        0.4234
    126 HO2'       -8.1540  -24.7251  -42.8039 H         4   C4        0.4186
    127 P          -8.0600  -27.3680  -41.5500 P.3       5   G5        1.1662
    128 C5'        -6.8940  -25.3110  -40.3030 C.3       5   G5        0.0558
    129 O5'        -7.3990  -25.8890  -41.5090 O.3       5   G5       -0.4989
    130 C4'        -6.5240  -23.8250  -40.4940 C.3       5   G5        0.1065
    131 O4'        -7.6570  -23.0210  -40.8230 O.3       5   G5       -0.3548
    132 C3'        -5.8880  -23.1850  -39.2530 C.3       5   G5        0.2022
    133 O3'        -4.4810  -23.4050  -39.2360 O.3       5   G5       -0.5246
    134 C2'        -6.2010  -21.6980  -39.4750 C.3       5   G5        0.0670
    135 O2'        -5.1640  -21.1000  -40.2380 O.3       5   G5       -0.6139
    136 C1'        -7.4800  -21.6930  -40.3190 C.3       5   G5        0.0191
    137 N1        -10.6460  -17.7910  -39.1410 N.am      5   G5       -0.4787
    138 C2         -9.3860  -17.7570  -39.6300 C.2       5   G5        0.7657
    139 N2         -8.8860  -16.5760  -39.8760 N.pl3     5   G5       -0.9672
    140 N3         -8.6270  -18.8290  -39.8660 N.2       5   G5       -0.6323
    141 C4         -9.2170  -20.0010  -39.4710 C.ar      5   G5        0.1222
    142 C5        -10.4750  -20.1360  -38.9150 C.ar      5   G5        0.1744
    143 C6        -11.2820  -18.9520  -38.7480 C.2       5   G5        0.4770
    144 O6        -12.4430  -18.8500  -38.3440 O.2       5   G5       -0.5597
    145 N7        -10.7370  -21.4820  -38.6240 N.ar      5   G5       -0.5709
    146 C8         -9.6460  -22.0940  -39.0030 C.ar      5   G5        0.1374
    147 N9         -8.6970  -21.2790  -39.5680 N.ar      5   G5        0.0492
    148 OP1        -7.0770  -28.3210  -42.1150 O.co2     5   G5       -0.7760
    149 OP2        -8.7210  -27.6600  -40.2650 O.co2     5   G5       -0.7760
    150 H5'        -6.0043  -25.8596  -39.9940 H         5   G5        0.0679
    151 H5''       -7.6518  -25.3926  -39.5238 H         5   G5        0.0679
    152 H4'        -5.8098  -23.7563  -41.3146 H         5   G5        0.1174
    153 H3'        -6.3542  -23.5524  -38.3388 H         5   G5        0.0615
    154 H2'        -6.3480  -21.1777  -38.5285 H         5   G5        0.0972
    155 H1'        -7.3409  -21.0149  -41.1610 H         5   G5        0.2006
    156 H1        -11.1497  -16.9195  -39.0586 H         5   G5        0.3424
    157 H8         -9.5025  -23.1575  -38.8812 H         5   G5        0.1640
    158 H21        -9.4378  -15.7479  -39.7031 H         5   G5        0.4364
    159 H22        -7.9474  -16.4906  -40.2392 H         5   G5        0.4364
    160 HO2'       -4.3522  -21.0934  -39.7257 H         5   G5        0.4186
    161 P          -3.7470  -23.9920  -37.9430 P.3       6   A6        1.1662
    162 C5'        -2.6020  -21.8430  -36.9150 C.3       6   A6        0.0558
    163 O5'        -3.7300  -22.7120  -36.9620 O.3       6   A6       -0.4989
    164 C4'        -2.8960  -20.4500  -36.3300 C.3       6   A6        0.1065
    165 O4'        -3.9740  -19.8500  -37.0470 O.3       6   A6       -0.3548
    166 C3'        -3.2300  -20.3880  -34.8330 C.3       6   A6        0.2022
    167 O3'        -2.0640  -20.3980  -33.9960 O.3       6   A6       -0.5246
    168 C2'        -4.0120  -19.0580  -34.8090 C.3       6   A6        0.0670
    169 O2'        -3.1560  -17.9370  -34.6500 O.3       6   A6       -0.6139
    170 C1'        -4.6580  -18.9460  -36.1900 C.3       6   A6        0.0394
    171 N1         -9.4160  -16.9510  -36.1080 N.ar      6   A6       -0.7615
    172 C2         -8.2300  -16.4130  -36.3630 C.ar      6   A6        0.5875
    173 N3         -7.0480  -17.0160  -36.4300 N.ar      6   A6       -0.6997
    174 C4         -7.1370  -18.3580  -36.2060 C.ar      6   A6        0.3053
    175 C5         -8.2820  -19.0660  -35.9570 C.ar      6   A6        0.0515
    176 C6         -9.4530  -18.2680  -35.9010 C.ar      6   A6        0.7009
    177 N6        -10.6600  -18.7330  -35.6510 N.pl3     6   A6       -0.9019
    178 N7         -8.0030  -20.4350  -35.7930 N.ar      6   A6       -0.6073
    179 C8         -6.7000  -20.4840  -35.9030 C.ar      6   A6        0.2006
    180 N9         -6.1040  -19.2690  -36.1430 N.ar      6   A6       -0.0251
    181 OP1        -2.3630  -24.3220  -38.3510 O.co2     6   A6       -0.7760
    182 OP2        -4.6190  -25.0440  -37.3840 O.co2     6   A6       -0.7760
    183 H5'        -1.8338  -22.3147  -36.3022 H         6   A6        0.0679
    184 H5''       -2.2142  -21.7210  -37.9264 H         6   A6        0.0679
    185 H4'        -2.0119  -19.8338  -36.4933 H         6   A6        0.1174
    186 H3'        -3.8894  -21.2131  -34.5636 H         6   A6        0.0615
    187 H2'        -4.7732  -19.0739  -34.0289 H         6   A6        0.0972
    188 H1'        -4.5296  -17.9304  -36.5645 H         6   A6        0.2007
    189 H2         -8.2250  -15.3474  -36.5388 H         6   A6        0.0473
    190 H8         -6.1395  -21.4028  -35.8127 H         6   A6        0.1553
    191 HO2'       -2.8145  -17.9192  -33.7530 H         6   A6        0.4186
    192 H61       -11.3236  -17.9726  -35.6900 H         6   A6        0.4115
    193 H62       -10.8859  -19.6971  -35.4519 H         6   A6        0.4115
    194 P          -2.1920  -20.1620  -32.4060 P.3       7   A7        1.1662
    195 C5'        -0.2980  -21.5610  -31.1620 C.3       7   A7        0.0558
    196 O5'        -0.7310  -20.3320  -31.7310 O.3       7   A7       -0.4989
    197 C4'         0.9980  -21.4450  -30.3270 C.3       7   A7        0.1065
    198 O4'         2.0460  -20.8670  -31.1160 O.3       7   A7       -0.3548
    199 C3'         0.8590  -20.5790  -29.0530 C.3       7   A7        0.2022
    200 O3'         1.6940  -21.0310  -27.9850 O.3       7   A7       -0.5246
    201 C2'         1.4850  -19.2630  -29.5160 C.3       7   A7        0.0670
    202 O2'         1.9440  -18.4700  -28.4280 O.3       7   A7       -0.6139
    203 C1'         2.6400  -19.8520  -30.3220 C.3       7   A7        0.0394
    204 N1          7.3290  -17.9530  -30.9980 N.ar      7   A7       -0.7615
    205 C2          6.8900  -19.0640  -30.4300 C.ar      7   A7        0.5875
    206 N3          5.6490  -19.5260  -30.3850 N.ar      7   A7       -0.6997
    207 C4          4.7660  -18.6900  -31.0040 C.ar      7   A7        0.3053
    208 C5          5.0580  -17.5120  -31.6370 C.ar      7   A7        0.0515
    209 C6          6.4290  -17.1650  -31.5850 C.ar      7   A7        0.7009
    210 N6          6.9450  -16.0440  -32.0450 N.pl3     7   A7       -0.9019
    211 N7          3.8950  -16.9170  -32.1530 N.ar      7   A7       -0.6073
    212 C8          2.9510  -17.7450  -31.7770 C.ar      7   A7        0.2006
    213 N9          3.4030  -18.8410  -31.0820 N.ar      7   A7       -0.0251
    214 OP1        -3.0840  -21.2250  -31.8980 O.co2     7   A7       -0.7760
    215 OP2        -2.5710  -18.7460  -32.2350 O.co2     7   A7       -0.7760
    216 H5'        -1.0903  -21.9369  -30.5146 H         7   A7        0.0679
    217 H5''       -0.1330  -22.2791  -31.9653 H         7   A7        0.0679
    218 H4'         1.3054  -22.4474  -30.0290 H         7   A7        0.1174
    219 H3'        -0.1796  -20.4584  -28.7448 H         7   A7        0.0615
    220 H2'         0.8020  -18.7024  -30.1542 H         7   A7        0.0972
    221 H1'         3.3249  -20.3321  -29.6231 H         7   A7        0.2007
    222 H2          7.6375  -19.6712  -29.9412 H         7   A7        0.0473
    223 H8          1.9062  -17.5798  -31.9950 H         7   A7        0.1553
    224 HO2'        2.7471  -18.8537  -28.0682 H         7   A7        0.4186
    225 H61         7.9349  -15.8672  -31.9500 H         7   A7        0.4115
    226 H62         6.3508  -15.3610  -32.4928 H         7   A7        0.4115
    227 P           1.3000  -22.2380  -27.0220 P.3       8   G8        1.1662
    228 C5'         2.6190  -20.9620  -25.0870 C.3       8   G8        0.0558
    229 O5'         2.4760  -22.1110  -25.9260 O.3       8   G8       -0.4989
    230 C4'         4.0000  -20.3060  -25.2850 C.3       8   G8        0.1065
    231 O4'         3.9230  -18.9680  -25.8180 O.3       8   G8       -0.3548
    232 C3'         4.8620  -20.1630  -24.0170 C.3       8   G8        0.2022
    233 O3'         5.4180  -21.3600  -23.4560 O.3       8   G8       -0.5246
    234 C2'         5.9310  -19.2500  -24.6480 C.3       8   G8        0.0670
    235 O2'         6.7660  -20.0630  -25.4650 O.3       8   G8       -0.6139
    236 C1'         5.0820  -18.2060  -25.4390 C.3       8   G8        0.0191
    237 N1          9.1680  -16.7550  -28.1190 N.am      8   G8       -0.4787
    238 C2          9.0770  -17.7150  -27.1290 C.2       8   G8        0.7657
    239 N2         10.2100  -18.3390  -26.7940 N.pl3     8   G8       -0.9672
    240 N3          7.9470  -18.0500  -26.5330 N.2       8   G8       -0.6323
    241 C4          6.8890  -17.3110  -26.9930 C.ar      8   G8        0.1222
    242 C5          6.8890  -16.3200  -27.9600 C.ar      8   G8        0.1744
    243 C6          8.1010  -15.9940  -28.6040 C.2       8   G8        0.4770
    244 O6          8.3000  -15.1400  -29.4820 O.2       8   G8       -0.5597
    245 N7          5.6150  -15.8270  -28.1530 N.ar      8   G8       -0.5709
    246 C8          4.8720  -16.4980  -27.3050 C.ar      8   G8        0.1374
    247 N9          5.5710  -17.4420  -26.5910 N.ar      8   G8        0.0492
    248 OP1         1.4730  -23.5020  -27.7730 O.co2     8   G8       -0.7760
    249 OP2         0.0110  -21.9280  -26.3810 O.co2     8   G8       -0.7760
    250 H5'         1.8417  -20.2395  -25.3357 H         8   G8        0.0679
    251 H5''        2.5101  -21.2624  -24.0449 H         8   G8        0.0679
    252 H4'         4.5569  -20.9148  -25.9973 H         8   G8        0.1174
    253 H3'         4.3104  -19.6158  -23.2525 H         8   G8        0.0615
    254 H2'         6.5180  -18.7569  -23.8732 H         8   G8        0.0972
    255 H1'         4.7405  -17.4728  -24.7083 H         8   G8        0.2006
    256 H1         10.0783  -16.5903  -28.5243 H         8   G8        0.3424
    257 H8          3.8133  -16.3253  -27.1800 H         8   G8        0.1640
    258 H21        11.0761  -18.0938  -27.2521 H         8   G8        0.4364
    259 H22        10.2004  -19.0559  -26.0826 H         8   G8        0.4364
    260 HO2'        7.6254  -19.6459  -25.5600 H         8   G8        0.4186
    261 P           5.8680  -21.4270  -21.9120 P.3       9   G9        1.1662
    262 C5'         8.0790  -20.0310  -21.9420 C.3       9   G9        0.0558
    263 O5'         6.6870  -20.0580  -21.6970 O.3       9   G9       -0.4989
    264 C4'         8.7430  -18.6800  -21.6840 C.3       9   G9        0.1065
    265 O4'         8.5220  -17.7490  -22.7160 O.3       9   G9       -0.3548
    266 C3'         8.3460  -17.9460  -20.3890 C.3       9   G9        0.2022
    267 O3'         9.5600  -17.7380  -19.6420 O.3       9   G9       -0.5246
    268 C2'         7.7720  -16.5790  -20.9030 C.3       9   G9        0.0670
    269 O2'         8.0880  -15.5310  -19.9940 O.3       9   G9       -0.6139
    270 C1'         8.6230  -16.4520  -22.1610 C.3       9   G9        0.0191
    271 N1         11.2780  -14.0460  -25.7860 N.am      9   G9       -0.4787
    272 C2         11.7230  -14.9470  -24.8390 C.2       9   G9        0.7657
    273 N2         13.0340  -15.2170  -24.8400 N.pl3     9   G9       -0.9672
    274 N3         10.9330  -15.5560  -23.9730 N.2       9   G9       -0.6323
    275 C4          9.6280  -15.1620  -24.1100 C.ar      9   G9        0.1222
    276 C5          9.0960  -14.2550  -25.0100 C.ar      9   G9        0.1744
    277 C6          9.9510  -13.6330  -25.9440 C.2       9   G9        0.4770
    278 O6          9.6650  -12.8000  -26.8150 O.2       9   G9       -0.5597
    279 N7          7.7290  -14.1430  -24.8410 N.ar      9   G9       -0.5709
    280 C8          7.4570  -14.9560  -23.8480 C.ar      9   G9        0.1374
    281 N9          8.5540  -15.6360  -23.3760 N.ar      9   G9        0.0492
    282 OP1         6.8240  -22.5530  -21.7060 O.co2     9   G9       -0.7760
    283 OP2         4.6530  -21.3470  -21.0780 O.co2     9   G9       -0.7760
    284 H5'         8.5522  -20.7712  -21.2968 H         9   G9        0.0679
    285 H5''        8.2547  -20.3120  -22.9804 H         9   G9        0.0679
    286 H4'         9.8177  -18.8555  -21.6359 H         9   G9        0.1174
    287 H3'         7.6076  -18.5061  -19.8153 H         9   G9        0.0615
    288 H2'         6.7060  -16.6314  -21.1244 H         9   G9        0.0972
    289 H1'         9.6511  -16.3648  -21.8096 H         9   G9        0.2006
    290 H1         11.9650  -13.6542  -26.4142 H         9   G9        0.3424
    291 H8          6.4647  -15.0793  -23.4400 H         9   G9        0.1640
    292 H21        13.6428  -14.7621  -25.5052 H         9   G9        0.4364
    293 H22        13.4145  -15.8756  -24.1755 H         9   G9        0.4364
    294 HO2'        7.5483  -15.6177  -19.2048 H         9   G9        0.4186
    295 P          10.2520  -18.8920  -18.7150 P.3      10   A10       1.1662
    296 C5'        11.7810  -20.7680  -19.9230 C.3      10   A10       0.0558
    297 O5'        10.4810  -20.2510  -19.5940 O.3      10   A10      -0.4989
    298 C4'        11.9770  -22.3110  -19.7950 C.3      10   A10       0.1065
    299 O4'        11.3600  -22.7480  -18.5780 O.3      10   A10      -0.3548
    300 C3'        11.4140  -23.2470  -20.8930 C.3      10   A10       0.2022
    301 O3'        12.0840  -24.5170  -20.7380 O.3      10   A10      -0.5246
    302 C2'         9.9590  -23.2920  -20.3830 C.3      10   A10       0.0670
    303 O2'         9.0630  -24.2140  -20.9950 O.3      10   A10      -0.6139
    304 C1'        10.2690  -23.6020  -18.9190 C.3      10   A10       0.0394
    305 N1          8.1760  -25.5500  -14.6130 N.ar     10   A10      -0.7615
    306 C2          9.3530  -25.7250  -15.2010 C.ar     10   A10       0.5875
    307 N3          9.8420  -25.1570  -16.2900 N.ar     10   A10      -0.6997
    308 C4          8.9680  -24.2590  -16.8470 C.ar     10   A10       0.3053
    309 C5          7.7220  -23.9690  -16.3700 C.ar     10   A10       0.0515
    310 C6          7.3590  -24.6700  -15.2040 C.ar     10   A10       0.7009
    311 N6          6.1870  -24.5390  -14.6140 N.pl3    10   A10      -0.9019
    312 N7          7.0640  -23.0460  -17.1780 N.ar     10   A10      -0.6073
    313 C8          7.9370  -22.8010  -18.1270 C.ar     10   A10       0.2006
    314 N9          9.1220  -23.4960  -17.9870 N.ar     10   A10      -0.0251
    315 OP1         9.3040  -19.2050  -17.6340 O.co2    10   A10      -0.7760
    316 OP2        11.5810  -18.3590  -18.3460 O.co2    10   A10      -0.7760
    317 H5'        11.9934  -20.4932  -20.9562 H        10   A10       0.0679
    318 H5''       12.5143  -20.2775  -19.2828 H        10   A10       0.0679
    319 H4'        13.0467  -22.5034  -19.7120 H        10   A10       0.1174
    320 H3'        11.5044  -22.8336  -21.8975 H        10   A10       0.0615
    321 H2'         9.5324  -22.2911  -20.4479 H        10   A10       0.0972
    322 H1'        10.6322  -24.6287  -18.8732 H        10   A10       0.2007
    323 H2         10.0075  -26.4360  -14.7189 H        10   A10       0.0473
    324 H8          7.7461  -22.1188  -18.9422 H        10   A10       0.1553
    325 HO2'        8.2634  -23.7547  -21.2620 H        10   A10       0.4186
    326 H61         5.9771  -25.0740  -13.7834 H        10   A10       0.4115
    327 H62         5.4992  -23.9037  -14.9927 H        10   A10       0.4115
    328 P          13.2690  -25.0980  -21.6730 P.3      11   A11       1.1662
    329 C5'        15.1000  -23.7940  -23.1230 C.3      11   A11       0.0558
    330 O5'        14.3480  -23.9140  -21.9080 O.3      11   A11      -0.4989
    331 C4'        16.2510  -24.8150  -23.2830 C.3      11   A11       0.1065
    332 O4'        15.7820  -26.1600  -23.3960 O.3      11   A11      -0.3548
    333 C3'        17.1560  -24.5560  -24.5050 C.3      11   A11       0.2022
    334 O3'        18.2480  -23.6840  -24.2110 O.3      11   A11      -0.5246
    335 C2'        17.6350  -25.9810  -24.8300 C.3      11   A11       0.0670
    336 O2'        18.8010  -26.3350  -24.0930 O.3      11   A11      -0.6139
    337 C1'        16.4650  -26.8640  -24.4160 C.3      11   A11       0.0394
    338 N1         16.1960  -28.9960  -29.1140 N.ar     11   A11      -0.7615
    339 C2         17.1150  -29.0480  -28.1590 C.ar     11   A11       0.5875
    340 N3         17.0760  -28.5490  -26.9330 N.ar     11   A11      -0.6997
    341 C4         15.9180  -27.8610  -26.6940 C.ar     11   A11       0.3053
    342 C5         14.8700  -27.7300  -27.5610 C.ar     11   A11       0.0515
    343 C6         15.0750  -28.3310  -28.8210 C.ar     11   A11       0.7009
    344 N6         14.2130  -28.2730  -29.8160 N.pl3    11   A11      -0.9019
    345 N7         13.8220  -27.0130  -26.9820 N.ar     11   A11      -0.6073
    346 C8         14.2910  -26.6860  -25.8010 C.ar     11   A11       0.2006
    347 N9         15.5790  -27.1260  -25.5760 N.ar     11   A11      -0.0251
    348 OP1        12.7030  -25.4650  -22.9870 O.co2    11   A11      -0.7760
    349 OP2        13.9530  -26.1430  -20.8700 O.co2    11   A11      -0.7760
    350 H5'        15.5292  -22.7927  -23.1574 H        11   A11       0.0679
    351 H5''       14.4174  -23.9071  -23.9652 H        11   A11       0.0679
    352 H4'        16.8739  -24.7550  -22.3905 H        11   A11       0.1174
    353 H3'        16.5680  -24.1581  -25.3320 H        11   A11       0.0615
    354 H2'        17.8213  -26.0805  -25.8993 H        11   A11       0.0972
    355 H1'        16.8404  -27.8081  -24.0212 H        11   A11       0.2007
    356 H2         18.0236  -29.5713  -28.4179 H        11   A11       0.0473
    357 H8         13.7224  -26.1254  -25.0738 H        11   A11       0.1553
    358 HO2'       19.5825  -26.0625  -24.5794 H        11   A11       0.4186
    359 H61        14.4276  -28.7184  -30.6967 H        11   A11       0.4115
    360 H62        13.3377  -27.7832  -29.6979 H        11   A11       0.4115
    361 P          19.3250  -23.2160  -25.3190 P.3      12   G12       1.1662
    362 C5'        18.8360  -20.6360  -25.8440 C.3      12   G12       0.0558
    363 O5'        18.6320  -22.0170  -26.1620 O.3      12   G12      -0.4989
    364 C4'        18.2520  -19.6750  -26.9120 C.3      12   G12       0.1065
    365 O4'        16.8420  -19.3960  -26.7750 O.3      12   G12      -0.3548
    366 C3'        18.9180  -18.2930  -26.9040 C.3      12   G12       0.2022
    367 O3'        20.2380  -18.2570  -27.4440 O.3      12   G12      -0.5246
    368 C2'        17.8700  -17.4930  -27.7080 C.3      12   G12       0.0670
    369 O2'        17.8220  -17.8070  -29.0960 O.3      12   G12      -0.6139
    370 C1'        16.5950  -17.9950  -26.9960 C.3      12   G12       0.0191
    371 N1         13.6550  -15.1960  -30.0530 N.am     12   G12      -0.4787
    372 C2         15.0150  -15.2580  -30.0050 C.2      12   G12       0.7657
    373 N2         15.6770  -14.4590  -30.8600 N.pl3    12   G12      -0.9672
    374 N3         15.6910  -16.0590  -29.1750 N.2      12   G12      -0.6323
    375 C4         14.8650  -16.7820  -28.3860 C.ar     12   G12       0.1222
    376 C5         13.4940  -16.7730  -28.3640 C.ar     12   G12       0.1744
    377 C6         12.8000  -15.9420  -29.2510 C.2      12   G12       0.4770
    378 O6         11.5890  -15.8140  -29.3660 O.2      12   G12      -0.5597
    379 N7         13.0050  -17.6720  -27.4120 N.ar     12   G12      -0.5709
    380 C8         14.0790  -18.1900  -26.8830 C.ar     12   G12       0.1374
    381 N9         15.2460  -17.7170  -27.4440 N.ar     12   G12       0.0492
    382 OP1        19.5520  -24.3660  -26.2240 O.co2    12   G12      -0.7760
    383 OP2        20.4880  -22.7220  -24.5570 O.co2    12   G12      -0.7760
    384 H5'        18.3563  -20.4254  -24.8881 H        12   G12       0.0679
    385 H5''       19.9059  -20.4502  -25.7500 H        12   G12       0.0679
    386 H4'        18.4139  -20.1220  -27.8929 H        12   G12       0.1174
    387 H3'        18.9428  -17.9172  -25.8811 H        12   G12       0.0615
    388 H2'        18.0015  -16.4215  -27.5574 H        12   G12       0.0972
    389 H1'        16.6472  -17.5507  -26.0020 H        12   G12       0.2006
    390 H1         13.2381  -14.5621  -30.7196 H        12   G12       0.3424
    391 H8         14.0562  -18.9172  -26.0848 H        12   G12       0.1640
    392 H21        15.1644  -13.8565  -31.4879 H        12   G12       0.4364
    393 H22        16.6869  -14.4613  -30.8744 H        12   G12       0.4364
    394 HO2'       17.5414  -17.0332  -29.5901 H        12   G12       0.4186
    395 P          21.4690  -17.7230  -26.5620 P.3      13   G13       1.1662
    396 C5'        21.5800  -15.1990  -27.3310 C.3      13   G13       0.0558
    397 O5'        21.1130  -16.1610  -26.3990 O.3      13   G13      -0.4989
    398 C4'        20.8940  -13.8320  -27.1780 C.3      13   G13       0.1065
    399 O4'        19.5260  -13.9620  -27.5780 O.3      13   G13      -0.3548
    400 C3'        20.9020  -13.2770  -25.7270 C.3      13   G13       0.2022
    401 O3'        21.2900  -11.8950  -25.6190 O.3      13   G13      -0.5246
    402 C2'        19.4110  -13.3450  -25.3500 C.3      13   G13       0.0670
    403 O2'        19.0920  -12.2930  -24.4420 O.3      13   G13      -0.6139
    404 C1'        18.7770  -13.1230  -26.7250 C.3      13   G13       0.0191
    405 N1         14.4710  -11.3900  -28.7960 N.am     13   G13      -0.4787
    406 C2         15.7550  -11.0710  -29.1130 C.2      13   G13       0.7657
    407 N2         15.9170  -10.1580  -30.0880 N.pl3    13   G13      -0.9672
    408 N3         16.8240  -11.6150  -28.5200 N.2      13   G13      -0.6323
    409 C4         16.4710  -12.5020  -27.5630 C.ar     13   G13       0.1222
    410 C5         15.2110  -12.8740  -27.1760 C.ar     13   G13       0.1744
    411 C6         14.1030  -12.3070  -27.8200 C.2      13   G13       0.4770
    412 O6         12.9190  -12.5270  -27.6020 O.2      13   G13      -0.5597
    413 N7         15.2620  -13.8280  -26.1580 N.ar     13   G13      -0.5709
    414 C8         16.5390  -14.0030  -25.9530 C.ar     13   G13       0.1374
    415 N9         17.3350  -13.2510  -26.7880 N.ar     13   G13       0.0492
    416 OP1        22.7200  -17.8430  -27.3510 O.co2    13   G13      -0.7760
    417 OP2        21.4000  -18.3350  -25.2210 O.co2    13   G13      -0.7760
    418 H5'        22.6523  -15.0675  -27.1864 H        13   G13       0.0679
    419 H5''       21.4034  -15.5711  -28.3402 H        13   G13       0.0679
    420 H4'        21.3870  -13.1141  -27.8335 H        13   G13       0.1174
    421 H3'        21.5023  -13.9058  -25.0695 H        13   G13       0.0615
    422 H2'        19.1464  -14.3200  -24.9407 H        13   G13       0.0972
    423 H1'        19.0109  -12.0982  -27.0133 H        13   G13       0.2006
    424 H1         13.7329  -10.9270  -29.3068 H        13   G13       0.3424
    425 H8         16.9328  -14.6720  -25.2021 H        13   G13       0.1640
    426 H21        15.1095   -9.7499  -30.5369 H        13   G13       0.4364
    427 H22        16.8461   -9.8808  -30.3710 H        13   G13       0.4364
    428 HO2'       18.1615  -12.3405  -24.2107 H        13   G13       0.4186
    429 P          22.7550  -11.4640  -25.1350 P.3      14   U14       1.1662
    430 C5'        22.3860   -9.0380  -26.1070 C.3      14   U14       0.0558
    431 O5'        22.6200   -9.8720  -24.9910 O.3      14   U14      -0.4989
    432 C4'        22.3270   -7.5560  -25.6900 C.3      14   U14       0.1065
    433 O4'        21.2780   -7.3560  -24.7370 O.3      14   U14      -0.3548
    434 C3'        23.6370   -7.0790  -25.0320 C.3      14   U14       0.2022
    435 O3'        23.8810   -5.6820  -25.2300 O.3      14   U14      -0.5246
    436 C2'        23.3370   -7.2950  -23.5470 C.3      14   U14       0.0670
    437 O2'        24.1240   -6.3990  -22.7770 O.3      14   U14      -0.6139
    438 C1'        21.8470   -6.9530  -23.4980 C.3      14   U14       0.0674
    439 N1         21.1570   -7.5820  -22.3380 N.am     14   U14       0.0418
    440 C2         20.8390   -6.7760  -21.2380 C.2      14   U14       0.4687
    441 O2         21.0440   -5.5650  -21.1680 O.2      14   U14      -0.5477
    442 N3         20.2220   -7.3890  -20.1710 N.am     14   U14      -0.3549
    443 C4         19.9090   -8.7190  -20.0740 C.2      14   U14       0.5952
    444 O4         19.4110   -9.1220  -19.0310 O.2      14   U14      -0.5761
    445 C5         20.2440   -9.4980  -21.2450 C.2      14   U14      -0.3635
    446 C6         20.8540   -8.9300  -22.3240 C.2      14   U14      -0.1126
    447 OP1        23.7240  -11.7540  -26.2020 O.co2    14   U14      -0.7760
    448 OP2        22.9570  -11.9670  -23.7660 O.co2    14   U14      -0.7760
    449 H5'        21.4376   -9.3163  -26.5665 H        14   U14       0.0679
    450 H5''       23.1890   -9.1748  -26.8313 H        14   U14       0.0679
    451 H4'        22.1285   -6.9459  -26.5712 H        14   U14       0.1174
    452 H3'        24.4862   -7.6802  -25.3569 H        14   U14       0.0615
    453 H2'        23.5151   -8.3297  -23.2540 H        14   U14       0.0972
    454 H1'        21.7466   -5.8711  -23.4108 H        14   U14       0.1824
    455 H3         19.9770   -6.8029  -19.3858 H        14   U14       0.3154
    456 H5         20.0062  -10.5513  -21.2655 H        14   U14       0.1811
    457 H6         21.1035   -9.5415  -23.1786 H        14   U14       0.2188
    458 HO2'       23.9393   -6.5307  -21.8442 H        14   U14       0.4186
    459 P          24.7160   -5.1540  -26.4940 P.3      15   U15       1.1662
    460 C5'        23.9100   -5.3170  -29.0390 C.3      15   U15       0.0558
    461 O5'        23.8780   -5.7980  -27.7030 O.3      15   U15      -0.4989
    462 C4'        23.0320   -6.2250  -29.9220 C.3      15   U15       0.1065
    463 O4'        21.6570   -6.1830  -29.5520 O.3      15   U15      -0.3548
    464 C3'        22.9980   -5.8630  -31.4100 C.3      15   U15       0.2022
    465 O3'        24.2310   -6.1720  -32.0530 O.3      15   U15      -0.5246
    466 C2'        21.7630   -6.6750  -31.8720 C.3      15   U15       0.0670
    467 O2'        22.0940   -7.9770  -32.3410 O.3      15   U15      -0.6139
    468 C1'        20.9430   -6.8550  -30.5820 C.3      15   U15       0.0674
    469 N1         19.5240   -6.3940  -30.6750 N.am     15   U15       0.0418
    470 C2         18.5030   -7.3310  -30.4460 C.2      15   U15       0.4687
    471 O2         18.6980   -8.5340  -30.3140 O.2      15   U15      -0.5477
    472 N3         17.2150   -6.8520  -30.3440 N.am     15   U15      -0.3549
    473 C4         16.8380   -5.5440  -30.5010 C.2      15   U15       0.5952
    474 O4         15.7090   -5.2150  -30.1770 O.2      15   U15      -0.5761
    475 C5         17.9160   -4.6480  -30.8580 C.2      15   U15      -0.3635
    476 C6         19.2050   -5.0770  -30.9390 C.2      15   U15      -0.1126
    477 OP1        26.0590   -5.7650  -26.4200 O.co2    15   U15      -0.7760
    478 OP2        24.5970   -3.6810  -26.5130 O.co2    15   U15      -0.7760
    479 H5'        23.5264   -4.2972  -29.0691 H        15   U15       0.0679
    480 H5''       24.9358   -5.3317  -29.4074 H        15   U15       0.0679
    481 H4'        23.3860   -7.2512  -29.8232 H        15   U15       0.1174
    482 H3'        22.7912   -4.7983  -31.5180 H        15   U15       0.0615
    483 H2'        21.1937   -6.1247  -32.6212 H        15   U15       0.0972
    484 H1'        20.9323   -7.9178  -30.3403 H        15   U15       0.1824
    485 H3         16.4877   -7.5212  -30.1360 H        15   U15       0.3154
    486 H5         17.6922   -3.6120  -31.0656 H        15   U15       0.1811
    487 H6         19.9848   -4.3814  -31.2120 H        15   U15       0.2188
    488 HO2'       22.7549   -7.9096  -33.0340 H        15   U15       0.4186
    489 P          24.6110   -5.6010  -33.5050 P.3      16   U16       1.1662
    490 C5'        22.7070   -6.1850  -35.2890 C.3      16   U16       0.0558
    491 O5'        23.8960   -6.5530  -34.5990 O.3      16   U16      -0.4989
    492 C4'        22.4850   -6.9730  -36.6000 C.3      16   U16       0.1065
    493 O4'        23.6500   -6.8280  -37.4260 O.3      16   U16      -0.3548
    494 C3'        22.2080   -8.4870  -36.4550 C.3      16   U16       0.2022
    495 O3'        21.3770   -8.8440  -37.5610 O.3      16   U16      -0.5246
    496 C2'        23.6550   -9.0150  -36.5310 C.3      16   U16       0.0670
    497 O2'        23.8300  -10.3800  -36.8860 O.3      16   U16      -0.6139
    498 C1'        24.2390   -8.1070  -37.6100 C.3      16   U16       0.0674
    499 N1         25.7290   -8.0420  -37.5840 N.am     16   U16       0.0418
    500 C2         26.4400   -8.3670  -38.7470 C.2      16   U16       0.4687
    501 O2         25.9540   -8.5940  -39.8520 O.2      16   U16      -0.5477
    502 N3         27.8160   -8.3450  -38.6720 N.am     16   U16      -0.3549
    503 C4         28.5650   -8.0070  -37.5740 C.2      16   U16       0.5952
    504 O4         29.7920   -7.9930  -37.6730 O.2      16   U16      -0.5761
    505 C5         27.7810   -7.6560  -36.4140 C.2      16   U16      -0.3635
    506 C6         26.4190   -7.6860  -36.4410 C.2      16   U16      -0.1126
    507 OP1        26.0720   -5.7830  -33.6860 O.co2    16   U16      -0.7760
    508 OP2        24.0560   -4.2350  -33.6180 O.co2    16   U16      -0.7760
    509 H5'        22.7628   -5.1235  -35.5301 H        16   U16       0.0679
    510 H5''       21.8539   -6.3510  -34.6311 H        16   U16       0.0679
    511 H4'        21.6414   -6.5244  -37.1246 H        16   U16       0.1174
    512 H3'        21.7383   -8.7246  -35.5005 H        16   U16       0.0615
    513 H2'        24.1597   -8.8210  -35.5846 H        16   U16       0.0972
    514 H1'        23.9301   -8.4892  -38.5829 H        16   U16       0.1824
    515 H3         28.3221   -8.6030  -39.5071 H        16   U16       0.3154
    516 H5         28.2849   -7.3632  -35.5048 H        16   U16       0.1811
    517 H6         25.8669   -7.4260  -35.5499 H        16   U16       0.2188
    518 HO2'       22.9739  -10.8123  -36.9286 H        16   U16       0.4186
    519 P          20.6040  -10.2570  -37.6980 P.3      17   G17       1.1662
    520 C5'        18.1750   -9.1660  -37.3060 C.3      17   G17       0.0558
    521 O5'        19.1660  -10.1400  -36.9510 O.3      17   G17      -0.4989
    522 C4'        16.6970   -9.5940  -37.0560 C.3      17   G17       0.1065
    523 O4'        16.4880  -10.4320  -35.9060 O.3      17   G17      -0.3548
    524 C3'        15.6830   -8.4450  -36.8550 C.3      17   G17       0.2022
    525 O3'        15.3510   -7.5750  -37.9300 O.3      17   G17      -0.5246
    526 C2'        14.4890   -9.1990  -36.2180 C.3      17   G17       0.0670
    527 O2'        13.7800  -10.1360  -37.0170 O.3      17   G17      -0.6139
    528 C1'        15.3510   -9.9330  -35.1920 C.3      17   G17       0.0191
    529 N1         11.3560  -11.6900  -32.6930 N.am     17   G17      -0.4787
    530 C2         11.4180  -10.7500  -33.6990 C.2      17   G17       0.7657
    531 N2         10.2490  -10.2130  -34.0990 N.pl3    17   G17      -0.9672
    532 N3         12.5420  -10.3520  -34.2540 N.2      17   G17      -0.6323
    533 C4         13.6180  -10.9870  -33.7230 C.ar     17   G17       0.1222
    534 C5         13.6560  -11.9380  -32.7430 C.ar     17   G17       0.1744
    535 C6         12.4510  -12.3550  -32.1550 C.2      17   G17       0.4770
    536 O6         12.2850  -13.1990  -31.2710 O.2      17   G17      -0.5597
    537 N7         14.9640  -12.3440  -32.4970 N.ar     17   G17      -0.5709
    538 C8         15.6730  -11.6290  -33.3290 C.ar     17   G17       0.1374
    539 N9         14.9080  -10.7780  -34.0860 N.ar     17   G17       0.0492
    540 OP1        21.4330  -11.2380  -36.9580 O.co2    17   G17      -0.7760
    541 OP2        20.4000  -10.4820  -39.1430 O.co2    17   G17      -0.7760
    542 H5'        18.2860   -8.9450  -38.3676 H        17   G17       0.0679
    543 H5''       18.3701   -8.2541  -36.7417 H        17   G17       0.0679
    544 H4'        16.3735  -10.1598  -37.9297 H        17   G17       0.1174
    545 H3'        16.0950   -7.8117  -36.0693 H        17   G17       0.0615
    546 H2'        13.8048   -8.5055  -35.7291 H        17   G17       0.0972
    547 H1'        15.7932   -9.0957  -34.6522 H        17   G17       0.2006
    548 H1         10.4449  -11.9125  -32.3182 H        17   G17       0.3424
    549 H8         16.7474  -11.7001  -33.4122 H        17   G17       0.1640
    550 H21         9.3840  -10.5098  -33.6703 H        17   G17       0.4364
    551 H22        10.2376   -9.5136  -34.8276 H        17   G17       0.4364
    552 HO2'       12.8750  -10.2041  -36.7040 H        17   G17       0.4186
    553 P          16.1850   -6.2100  -38.1800 P.3      18   G18       1.1662
    554 C5'        15.9990   -4.6080  -35.9990 C.3      18   G18       0.0558
    555 O5'        16.6170   -5.6880  -36.7020 O.3      18   G18      -0.4989
    556 C4'        14.6050   -4.8520  -35.3800 C.3      18   G18       0.1065
    557 O4'        14.3730   -6.1600  -34.8530 O.3      18   G18      -0.3548
    558 C3'        14.3540   -3.9550  -34.1560 C.3      18   G18       0.2022
    559 O3'        14.2290   -2.5540  -34.4310 O.3      18   G18      -0.5246
    560 C2'        13.0740   -4.6260  -33.6110 C.3      18   G18       0.0670
    561 O2'        11.8820   -4.1270  -34.2020 O.3      18   G18      -0.6139
    562 C1'        13.2030   -6.0980  -34.0280 C.3      18   G18       0.0191
    563 N1         10.6690   -8.7830  -30.6110 N.am     18   G18      -0.4787
    564 C2         10.1970   -7.9070  -31.5670 C.2      18   G18       0.7657
    565 N2          8.8630   -7.7350  -31.6230 N.pl3    18   G18      -0.9672
    566 N3         10.9760   -7.2390  -32.3880 N.2      18   G18      -0.6323
    567 C4         12.2890   -7.5270  -32.1840 C.ar     18   G18       0.1222
    568 C5         12.8470   -8.3840  -31.2820 C.ar     18   G18       0.1744
    569 C6         12.0090   -9.0920  -30.4060 C.2      18   G18       0.4770
    570 O6         12.3240   -9.9080  -29.5400 O.2      18   G18      -0.5597
    571 N7         14.2340   -8.3990  -31.4070 N.ar     18   G18      -0.5709
    572 C8         14.4660   -7.5530  -32.3740 C.ar     18   G18       0.1374
    573 N9         13.3250   -6.9830  -32.8720 N.ar     18   G18       0.0492
    574 OP1        15.2920   -5.2110  -38.7990 O.co2    18   G18      -0.7760
    575 OP2        17.4330   -6.5680  -38.8870 O.co2    18   G18      -0.7760
    576 H5'        16.6690   -4.3234  -35.1877 H        18   G18       0.0679
    577 H5''       15.9203   -3.7627  -36.6827 H        18   G18       0.0679
    578 H4'        13.8458   -4.6381  -36.1322 H        18   G18       0.1174
    579 H3'        15.1618   -4.1027  -33.4393 H        18   G18       0.0615
    580 H2'        13.0286   -4.5384  -32.5255 H        18   G18       0.0972
    581 H1'        12.3305   -6.3862  -34.6144 H        18   G18       0.2006
    582 H1          9.9896   -9.2339  -30.0150 H        18   G18       0.3424
    583 H8         15.4554   -7.3263  -32.7429 H        18   G18       0.1640
    584 H21         8.2615   -8.2412  -30.9889 H        18   G18       0.4364
    585 H22         8.4637   -7.0998  -32.2991 H        18   G18       0.4364
    586 HO2'       11.7673   -3.2045  -33.9623 H        18   G18       0.4186
    587 P          15.2990   -1.4420  -33.9380 P.3      19   U19       1.1662
    588 C5'        13.2390    0.0830  -33.2240 C.3      19   U19       0.0558
    589 O5'        14.4970   -0.5000  -32.9010 O.3      19   U19      -0.4989
    590 C4'        12.6830    1.0140  -32.1180 C.3      19   U19       0.1065
    591 O4'        12.8530    0.4410  -30.8180 O.3      19   U19      -0.3548
    592 C3'        13.3980    2.3740  -32.0660 C.3      19   U19       0.2022
    593 O3'        12.5750    3.4130  -31.5080 O.3      19   U19      -0.5246
    594 C2'        14.5340    2.0790  -31.0790 C.3      19   U19       0.0670
    595 O2'        14.9620    3.3090  -30.5130 O.3      19   U19      -0.6139
    596 C1'        13.8150    1.1730  -30.0760 C.3      19   U19       0.0674
    597 N1         14.7190    0.2700  -29.3050 N.am     19   U19       0.0418
    598 C2         15.1520    0.6830  -28.0390 C.2      19   U19       0.4687
    599 O2         14.9010    1.7760  -27.5230 O.2      19   U19      -0.5477
    600 N3         15.9100   -0.2100  -27.3140 N.am     19   U19      -0.3549
    601 C4         16.2710   -1.4740  -27.7050 C.2      19   U19       0.5952
    602 O4         16.9270   -2.1730  -26.9420 O.2      19   U19      -0.5761
    603 C5         15.8020   -1.8390  -29.0190 C.2      19   U19      -0.3635
    604 C6         15.0570   -0.9870  -29.7720 C.2      19   U19      -0.1126
    605 OP1        15.6790   -0.5840  -35.0810 O.co2    19   U19      -0.7760
    606 OP2        16.3650   -2.0980  -33.1470 O.co2    19   U19      -0.7760
    607 H5'        12.5206   -0.7195  -33.3916 H        19   U19       0.0679
    608 H5''       13.3447    0.6568  -34.1447 H        19   U19       0.0679
    609 H4'        11.6204    1.1794  -32.2957 H        19   U19       0.1174
    610 H3'        13.7855    2.6568  -33.0448 H        19   U19       0.0615
    611 H2'        15.3581    1.5575  -31.5659 H        19   U19       0.0972
    612 H1'        13.2842    1.8075  -29.3662 H        19   U19       0.1824
    613 H3         16.2310    0.0958  -26.4065 H        19   U19       0.3154
    614 H5         16.0487   -2.8132  -29.4145 H        19   U19       0.1811
    615 H6         14.7235   -1.2970  -30.7513 H        19   U19       0.2188
    616 HO2'       14.7365    3.3281  -29.5801 H        19   U19       0.4186
    617 P          11.6530    4.3570  -32.4280 P.3      20   A20       1.1662
    618 C5'         9.2750    3.1350  -32.6000 C.3      20   A20       0.0558
    619 O5'        10.5880    3.3580  -33.1230 O.3      20   A20      -0.4989
    620 C4'         8.6460    1.8180  -33.1130 C.3      20   A20       0.1065
    621 O4'         9.2310    0.7500  -32.3670 O.3      20   A20      -0.3548
    622 C3'         7.1250    1.6920  -32.8670 C.3      20   A20       0.2022
    623 O3'         6.4890    0.8960  -33.8630 O.3      20   A20      -0.5246
    624 C2'         7.1100    0.8720  -31.5750 C.3      20   A20       0.0670
    625 O2'         5.8390    0.3060  -31.3110 O.3      20   A20      -0.6139
    626 C1'         8.2060   -0.1320  -31.9230 C.3      20   A20       0.0394
    627 N1         11.7860   -3.5090  -30.4570 N.ar     20   A20      -0.7615
    628 C2         11.7820   -2.5540  -31.3760 C.ar     20   A20       0.5875
    629 N3         10.8190   -1.6890  -31.6450 N.ar     20   A20      -0.6997
    630 C4          9.7740   -1.7780  -30.7840 C.ar     20   A20       0.3053
    631 C5          9.6540   -2.6580  -29.7430 C.ar     20   A20       0.0515
    632 C6         10.7160   -3.5920  -29.6720 C.ar     20   A20       0.7009
    633 N6         10.7610   -4.6620  -28.9100 N.pl3    20   A20      -0.9019
    634 N7          8.4600   -2.4420  -29.0410 N.ar     20   A20      -0.6073
    635 C8          7.8830   -1.4900  -29.7340 C.ar     20   A20       0.2006
    636 N9          8.6120   -1.0410  -30.8150 N.ar     20   A20      -0.0251
    637 OP1        12.5340    4.9410  -33.4640 O.co2    20   A20      -0.7760
    638 OP2        10.9400    5.2860  -31.5210 O.co2    20   A20      -0.7760
    639 H5'         9.3351    3.0926  -31.5125 H        20   A20       0.0679
    640 H5''        8.6337    3.9685  -32.8866 H        20   A20       0.0679
    641 H4'         8.8622    1.6919  -34.1739 H        20   A20       0.1174
    642 H3'         6.6446    2.6628  -32.7455 H        20   A20       0.0615
    643 H2'         7.4244    1.4920  -30.7355 H        20   A20       0.0972
    644 H1'         7.8731   -0.7356  -32.7673 H        20   A20       0.2007
    645 H2         12.6744   -2.4724  -31.9788 H        20   A20       0.0473
    646 H8          6.9133   -1.0892  -29.4783 H        20   A20       0.1553
    647 H61        11.5584   -5.2803  -28.9540 H        20   A20       0.4115
    648 H62         9.9980   -4.8659  -28.2804 H        20   A20       0.4115
    649 HO2'        5.1882    1.0066  -31.2258 H        20   A20       0.4186
    650 P           5.6360    1.5300  -35.0500 P.3      21   U21       1.1662
    651 C5'         4.1920   -0.7190  -35.2880 C.3      21   U21       0.0558
    652 O5'         5.1080    0.2260  -35.8500 O.3      21   U21      -0.4989
    653 C4'         3.5160   -1.6620  -36.3240 C.3      21   U21       0.1065
    654 O4'         3.0580   -0.8620  -37.4230 O.3      21   U21      -0.3548
    655 C3'         4.3790   -2.7840  -36.9430 C.3      21   U21       0.2022
    656 O3'         3.5040   -3.8110  -37.4290 O.3      21   U21      -0.5246
    657 C2'         5.0390   -1.9970  -38.0860 C.3      21   U21       0.0670
    658 O2'         5.6030   -2.7910  -39.1200 O.3      21   U21      -0.6139
    659 C1'         3.8330   -1.1850  -38.5740 C.3      21   U21       0.0674
    660 N1          4.1640    0.0450  -39.3580 N.am     21   U21       0.0418
    661 C2          3.4190    0.3160  -40.5140 C.2      21   U21       0.4687
    662 O2          2.5230   -0.3840  -40.9780 O.2      21   U21      -0.5477
    663 N3          3.6950    1.4870  -41.1850 N.am     21   U21      -0.3549
    664 C4          4.6200    2.4310  -40.8260 C.2      21   U21       0.5952
    665 O4          4.7440    3.4420  -41.5180 O.2      21   U21      -0.5761
    666 C5          5.3580    2.1040  -39.6280 C.2      21   U21      -0.3635
    667 C6          5.1240    0.9500  -38.9420 C.2      21   U21      -0.1126
    668 OP1         6.5580    2.2730  -35.9350 O.co2    21   U21      -0.7760
    669 OP2         4.4900    2.2490  -34.4560 O.co2    21   U21      -0.7760
    670 H5'         4.7362   -1.3352  -34.5722 H        21   U21       0.0679
    671 H5''        3.4133   -0.1733  -34.7551 H        21   U21       0.0679
    672 H4'         2.6477   -2.1211  -35.8514 H        21   U21       0.1174
    673 H3'         5.1129   -3.1723  -36.2368 H        21   U21       0.0615
    674 H2'         5.7965   -1.3255  -37.6819 H        21   U21       0.0972
    675 H1'         3.2304   -1.8333  -39.2101 H        21   U21       0.1824
    676 H3          3.1628    1.6671  -42.0243 H        21   U21       0.3154
    677 H5          6.1115    2.7889  -39.2682 H        21   U21       0.1811
    678 H6          5.7007    0.7373  -38.0540 H        21   U21       0.2188
    679 HO2'        5.7405   -3.6851  -38.7986 H        21   U21       0.4186
    680 P           4.0110   -5.3010  -37.8000 P.3      22   G22       1.1662
    681 C5'         4.2020   -7.5650  -36.3690 C.3      22   G22       0.0558
    682 O5'         3.7310   -6.2200  -36.4960 O.3      22   G22      -0.4989
    683 C4'         3.4950   -8.3500  -35.2310 C.3      22   G22       0.1065
    684 O4'         3.8890   -9.7450  -35.1320 O.3      22   G22      -0.3548
    685 C3'         3.7000   -7.7810  -33.8260 C.3      22   G22       0.2022
    686 O3'         2.9010   -6.6560  -33.4770 O.3      22   G22      -0.5246
    687 C2'         3.2730   -9.0230  -33.0380 C.3      22   G22       0.0670
    688 O2'         1.8620   -9.1850  -33.0320 O.3      22   G22      -0.6139
    689 C1'         3.8750  -10.2080  -33.7550 C.3      22   G22       0.0191
    690 N1          6.8610  -13.0860  -30.8490 N.am     22   G22      -0.4787
    691 C2          5.4810  -13.0410  -30.9630 C.2      22   G22       0.7657
    692 N2          4.7730  -13.9180  -30.2270 N.pl3    22   G22      -0.9672
    693 N3          4.8400  -12.2180  -31.7550 N.2      22   G22      -0.6323
    694 C4          5.6760  -11.4110  -32.4430 C.ar     22   G22       0.1222
    695 C5          7.0510  -11.3550  -32.4010 C.ar     22   G22       0.1744
    696 C6          7.7460  -12.2630  -31.5410 C.2      22   G22       0.4770
    697 O6          8.9730  -12.3910  -31.3700 O.2      22   G22      -0.5597
    698 N7          7.5340  -10.3580  -33.2770 N.ar     22   G22      -0.5709
    699 C8          6.4380   -9.8630  -33.8180 C.ar     22   G22       0.1374
    700 N9          5.2780  -10.4600  -33.3450 N.ar     22   G22       0.0492
    701 OP1         5.4670   -5.1940  -38.0480 O.co2    22   G22      -0.7760
    702 OP2         3.1550   -5.7820  -38.9040 O.co2    22   G22      -0.7760
    703 H5'         4.0262   -8.0849  -37.3107 H        22   G22       0.0679
    704 H5''        5.2738   -7.5461  -36.1713 H        22   G22       0.0679
    705 H4'         2.4249   -8.3284  -35.4374 H        22   G22       0.1174
    706 H3'         4.7546   -7.5659  -33.6536 H        22   G22       0.0615
    707 H2'         3.6503   -8.9692  -32.0168 H        22   G22       0.0972
    708 H1'         3.2589  -11.0998  -33.6397 H        22   G22       0.2006
    709 H1          7.2551  -13.7673  -30.2161 H        22   G22       0.3424
    710 H8          6.4427   -9.0731  -34.5545 H        22   G22       0.1640
    711 H21         5.2501  -14.5665  -29.6171 H        22   G22       0.4364
    712 H22         3.7647  -13.9275  -30.2847 H        22   G22       0.4364
    713 HO2'        1.5502   -9.2453  -32.1260 H        22   G22       0.4186
    714 P           3.4500   -5.5230  -32.4690 P.3      23   G23       1.1662
    715 C5'         1.9390   -6.2030  -30.3950 C.3      23   G23       0.0558
    716 O5'         3.2150   -6.1780  -31.0170 O.3      23   G23      -0.4989
    717 C4'         1.7360   -7.4960  -29.5830 C.3      23   G23       0.1065
    718 O4'         2.2720   -8.5780  -30.3490 O.3      23   G23      -0.3548
    719 C3'         2.3860   -7.6110  -28.2020 C.3      23   G23       0.2022
    720 O3'         1.6150   -7.1660  -27.0790 O.3      23   G23      -0.5246
    721 C2'         2.5870   -9.1420  -28.1610 C.3      23   G23       0.0670
    722 O2'         1.4000   -9.8810  -27.8800 O.3      23   G23      -0.6139
    723 C1'         3.0700   -9.4850  -29.5910 C.3      23   G23       0.0191
    724 N1          7.3990  -11.2870  -27.6810 N.am     23   G23      -0.4787
    725 C2          6.0830  -11.6330  -27.4210 C.2      23   G23       0.7657
    726 N2          5.8690  -12.6390  -26.5520 N.pl3    23   G23      -0.9672
    727 N3          5.0530  -11.0580  -27.9860 N.2      23   G23      -0.6323
    728 C4          5.4150  -10.0800  -28.8460 C.ar     23   G23       0.1222
    729 C5          6.6810   -9.6420  -29.1720 C.ar     23   G23       0.1744
    730 C6          7.8030  -10.2830  -28.5570 C.2      23   G23       0.4770
    731 O6          9.0170  -10.0580  -28.7230 O.2      23   G23      -0.5597
    732 N7          6.6150   -8.5920  -30.1110 N.ar     23   G23      -0.5709
    733 C8          5.3210   -8.4460  -30.3230 C.ar     23   G23       0.1374
    734 N9          4.5430   -9.3200  -29.5780 N.ar     23   G23       0.0492
    735 OP1         2.5870   -4.3280  -32.5930 O.co2    23   G23      -0.7760
    736 OP2         4.9110   -5.4120  -32.6600 O.co2    23   G23      -0.7760
    737 H5'         1.8538   -5.3468  -29.7258 H        23   G23       0.0679
    738 H5''        1.1663   -6.1366  -31.1610 H        23   G23       0.0679
    739 H4'         0.6645   -7.6598  -29.4683 H        23   G23       0.1174
    740 H3'         3.3546   -7.1111  -28.2067 H        23   G23       0.0615
    741 H2'         3.3616   -9.3952  -27.4371 H        23   G23       0.0972
    742 H1'         2.8090  -10.5137  -29.8395 H        23   G23       0.2006
    743 H1          8.1208  -11.8026  -27.1980 H        23   G23       0.3424
    744 H8          4.9090   -7.7193  -31.0075 H        23   G23       0.1640
    745 H21         6.6518  -13.1017  -26.1124 H        23   G23       0.4364
    746 H22         4.9257  -12.9309  -26.3397 H        23   G23       0.4364
    747 HO2'        1.0950   -9.6727  -26.9939 H        23   G23       0.4186
    748 P           1.5030   -5.6130  -26.6920 P.3      24   G24       1.1662
    749 C5'         0.3670   -5.5700  -24.2710 C.3      24   G24       0.0558
    750 O5'         1.5310   -5.6110  -25.0850 O.3      24   G24      -0.4989
    751 C4'         0.7520   -5.2850  -22.7940 C.3      24   G24       0.1065
    752 O4'         1.9280   -4.4850  -22.7400 O.3      24   G24      -0.3548
    753 C3'        -0.2900   -4.4960  -21.9900 C.3      24   G24       0.2022
    754 O3'        -0.0390   -4.6280  -20.5860 O.3      24   G24      -0.5246
    755 C2'         0.0770   -3.0790  -22.4540 C.3      24   G24       0.0670
    756 O2'        -0.5310   -2.0550  -21.6720 O.3      24   G24      -0.6139
    757 C1'         1.6020   -3.1700  -22.3140 C.3      24   G24       0.0191
    758 N1          6.1480   -1.8840  -24.3230 N.am     24   G24      -0.4787
    759 C2          5.7780   -2.9690  -23.5950 C.2      24   G24       0.7657
    760 N2          6.6860   -3.8620  -23.3040 N.pl3    24   G24      -0.9672
    761 N3          4.5920   -3.1250  -23.0330 N.2      24   G24      -0.6323
    762 C4          3.6930   -2.1560  -23.3750 C.ar     24   G24       0.1222
    763 C5          3.9630   -1.0020  -24.0790 C.ar     24   G24       0.1744
    764 C6          5.3180   -0.7980  -24.5380 C.2      24   G24       0.4770
    765 O6          5.8480    0.2090  -25.0110 O.2      24   G24      -0.5597
    766 N7          2.8090   -0.2020  -24.1550 N.ar     24   G24      -0.5709
    767 C8          1.8890   -0.9540  -23.6070 C.ar     24   G24       0.1374
    768 N9          2.3490   -2.1330  -23.0730 N.ar     24   G24       0.0492
    769 OP1         0.2010   -5.0810  -27.1390 O.co2    24   G24      -0.7760
    770 OP2         2.7680   -4.9690  -27.0890 O.co2    24   G24      -0.7760
    771 H5'        -0.2942   -4.7808  -24.6288 H        24   G24       0.0679
    772 H5''       -0.1492   -6.5281  -24.3310 H        24   G24       0.0679
    773 H4'         0.9449   -6.2319  -22.2898 H        24   G24       0.1174
    774 H3'        -1.3115   -4.7678  -22.2559 H        24   G24       0.0615
    775 H2'        -0.1913   -2.9521  -23.5028 H        24   G24       0.0972
    776 H1'         1.8577   -3.0760  -21.2586 H        24   G24       0.2006
    777 H1          7.0736   -1.8690  -24.7269 H        24   G24       0.3424
    778 H8          0.8476   -0.6694  -23.5769 H        24   G24       0.1640
    779 H21         6.4500   -4.6515  -22.7199 H        24   G24       0.4364
    780 H22         7.6247   -3.7629  -23.6633 H        24   G24       0.4364
    781 HO2'       -1.2827   -2.4177  -21.1977 H        24   G24       0.4186
    782 P          -1.1750   -4.3740  -19.4960 P.3      25   G25       1.1662
    783 C5'        -0.9750   -6.7940  -18.5020 C.3      25   G25       0.0558
    784 O5'        -1.7220   -5.8690  -19.2910 O.3      25   G25      -0.4989
    785 C4'        -1.0640   -8.2530  -18.9890 C.3      25   G25       0.1065
    786 O4'        -0.4020   -8.4000  -20.2440 O.3      25   G25      -0.3548
    787 C3'        -0.3980   -9.2220  -17.9880 C.3      25   G25       0.2022
    788 O3'        -1.3450  -10.0530  -17.3080 O.3      25   G25      -0.5246
    789 C2'         0.5690  -10.0420  -18.8530 C.3      25   G25       0.0670
    790 O2'        -0.0180  -11.2640  -19.2550 O.3      25   G25      -0.6139
    791 C1'         0.7840   -9.1720  -20.0960 C.3      25   G25       0.0191
    792 N1          4.2790   -6.6800  -22.8880 N.am     25   G25      -0.4787
    793 C2          3.2960   -7.5360  -23.2590 C.2      25   G25       0.7657
    794 N2          3.1810   -7.7840  -24.5340 N.pl3    25   G25      -0.9672
    795 N3          2.5060   -8.2050  -22.4220 N.2      25   G25      -0.6323
    796 C4          2.7320   -7.8820  -21.1130 C.ar     25   G25       0.1222
    797 C5          3.7230   -7.0540  -20.6210 C.ar     25   G25       0.1744
    798 C6          4.6110   -6.4220  -21.5710 C.2      25   G25       0.4770
    799 O6          5.6000   -5.7110  -21.3770 O.2      25   G25      -0.5597
    800 N7          3.6600   -7.0130  -19.2180 N.ar     25   G25      -0.5709
    801 C8          2.6220   -7.7530  -18.9370 C.ar     25   G25       0.1374
    802 N9          1.9890   -8.2990  -20.0280 N.ar     25   G25       0.0492
    803 OP1        -2.2030   -3.5120  -20.1270 O.co2    25   G25      -0.7760
    804 OP2        -0.5480   -3.9160  -18.2370 O.co2    25   G25      -0.7760
    805 H5'        -1.3493   -6.7514  -17.4792 H        25   G25       0.0679
    806 H5''        0.0714   -6.4888  -18.5037 H        25   G25       0.0679
    807 H4'        -2.1127   -8.5263  -19.1053 H        25   G25       0.1174
    808 H3'         0.1706   -8.6492  -17.2554 H        25   G25       0.0615
    809 H2'         1.5097  -10.2145  -18.3301 H        25   G25       0.0972
    810 H1'         0.8803   -9.8261  -20.9626 H        25   G25       0.2006
    811 H1          4.7972   -6.2047  -23.6131 H        25   G25       0.3424
    812 H8          2.2863   -7.9232  -17.9247 H        25   G25       0.1640
    813 H21         3.7867   -7.3198  -25.1957 H        25   G25       0.4364
    814 H22         2.4861   -8.4404  -24.8600 H        25   G25       0.4364
    815 HO2'       -0.1588  -11.8203  -18.4854 H        25   G25       0.4186
    816 P          -1.0940  -10.5980  -15.8080 P.3      26   U26       1.1662
    817 C5'        -1.5800  -13.1640  -16.4330 C.3      26   U26       0.0558
    818 O5'        -0.7010  -12.1570  -15.9400 O.3      26   U26      -0.4989
    819 C4'        -1.0560  -14.6110  -16.2080 C.3      26   U26       0.1065
    820 O4'         0.3440  -14.6700  -16.5060 O.3      26   U26      -0.3548
    821 C3'        -1.2260  -15.1470  -14.7670 C.3      26   U26       0.2022
    822 O3'        -1.3970  -16.5700  -14.8080 O.3      26   U26      -0.5246
    823 C2'         0.1130  -14.6950  -14.1710 C.3      26   U26       0.0670
    824 O2'         0.4840  -15.2850  -12.9290 O.3      26   U26      -0.6139
    825 C1'         1.0550  -15.0350  -15.3260 C.3      26   U26       0.0674
    826 N1          2.3510  -14.3170  -15.1880 N.am     26   U26       0.0418
    827 C2          3.4560  -15.0310  -14.7050 C.2      26   U26       0.4687
    828 O2          3.4690  -16.2420  -14.4930 O.2      26   U26      -0.5477
    829 N3          4.5660  -14.3020  -14.3480 N.am     26   U26      -0.3549
    830 C4          4.6640  -12.9310  -14.3460 C.2      26   U26       0.5952
    831 O4          5.6490  -12.3940  -13.8520 O.2      26   U26      -0.5761
    832 C5          3.5130  -12.2550  -14.8980 C.2      26   U26      -0.3635
    833 C6          2.4200  -12.9430  -15.3130 C.2      26   U26      -0.1126
    834 OP1        -2.3690  -10.5070  -15.0690 O.co2    26   U26      -0.7760
    835 OP2         0.0970   -9.9090  -15.2680 O.co2    26   U26      -0.7760
    836 H5'        -2.5396  -13.0622  -15.9261 H        26   U26       0.0679
    837 H5''       -1.7292  -13.0071  -17.5013 H        26   U26       0.0679
    838 H4'        -1.5827  -15.2790  -16.8895 H        26   U26       0.1174
    839 H3'        -2.0638  -14.6643  -14.2638 H        26   U26       0.0615
    840 H2'         0.0907  -13.6122  -14.0482 H        26   U26       0.0972
    841 H1'         1.2388  -16.1094  -15.3352 H        26   U26       0.1824
    842 H3          5.3835  -14.8212  -14.0612 H        26   U26       0.3154
    843 H5          3.5228  -11.1783  -14.9822 H        26   U26       0.1811
    844 H6          1.5895  -12.4073  -15.7486 H        26   U26       0.2188
    845 HO2'       -0.0646  -16.0552  -12.7635 H        26   U26       0.4186
    846 P          -2.0150  -17.3970  -13.5730 P.3      27   A27       1.1662
    847 C5'        -3.3720  -19.6260  -14.3360 C.3      27   A27       0.0558
    848 O5'        -2.1380  -18.9480  -14.0640 O.3      27   A27      -0.4989
    849 C4'        -3.9740  -20.3150  -13.0850 C.3      27   A27       0.1065
    850 O4'        -4.1190  -19.3740  -12.0210 O.3      27   A27      -0.3548
    851 C3'        -5.3430  -21.0320  -13.2450 C.3      27   A27       0.2022
    852 O3'        -5.2940  -22.4230  -13.6040 O.3      27   A27      -0.5246
    853 C2'        -5.9690  -20.7820  -11.8580 C.3      27   A27       0.0670
    854 O2'        -5.5630  -21.7030  -10.8490 O.3      27   A27      -0.6139
    855 C1'        -5.4320  -19.4060  -11.5000 C.3      27   A27       0.0394
    856 N1        -10.0160  -17.1770  -10.8780 N.ar     27   A27      -0.7615
    857 C2         -9.2640  -17.9210  -10.0810 C.ar     27   A27       0.5875
    858 N3         -8.0370  -18.3810  -10.2680 N.ar     27   A27      -0.6997
    859 C4         -7.5370  -18.0020  -11.4850 C.ar     27   A27       0.3053
    860 C5         -8.1770  -17.2330  -12.4170 C.ar     27   A27       0.0515
    861 C6         -9.4800  -16.8350  -12.0560 C.ar     27   A27       0.7009
    862 N6        -10.2790  -16.1420  -12.8410 N.pl3    27   A27      -0.9019
    863 N7         -7.3780  -17.0230  -13.5370 N.ar     27   A27      -0.6073
    864 C8         -6.2830  -17.6820  -13.2490 C.ar     27   A27       0.2006
    865 N9         -6.3310  -18.3560  -12.0470 N.ar     27   A27      -0.0251
    866 OP1        -3.3580  -16.8440  -13.3180 O.co2    27   A27      -0.7760
    867 OP2        -1.0080  -17.3500  -12.4890 O.co2    27   A27      -0.7760
    868 H5'        -4.0919  -18.8990  -14.7120 H        27   A27       0.0679
    869 H5''       -3.1982  -20.3796  -15.1041 H        27   A27       0.0679
    870 H4'        -3.2554  -21.0650  -12.7546 H        27   A27       0.1174
    871 H3'        -5.9299  -20.4994  -13.9933 H        27   A27       0.0615
    872 H2'        -7.0562  -20.7566  -11.9322 H        27   A27       0.0972
    873 H1'        -5.3887  -19.3101  -10.4151 H        27   A27       0.2007
    874 H2         -9.7190  -18.1923   -9.1398 H        27   A27       0.0473
    875 H8         -5.4185  -17.6961  -13.8962 H        27   A27       0.1553
    876 HO2'       -5.9208  -22.5719  -11.0455 H        27   A27       0.4186
    877 H61       -11.2083  -15.8994  -12.5284 H        27   A27       0.4115
    878 H62        -9.9624  -15.8532  -13.7556 H        27   A27       0.4115
    879 P          -6.5550  -23.4270  -13.4140 P.3      28   G28       1.1662
    880 C5'        -8.5070  -22.5370  -15.0180 C.3      28   G28       0.0558
    881 O5'        -7.8660  -22.5420  -13.7430 O.3      28   G28      -0.4989
    882 C4'        -9.5060  -21.3650  -15.0650 C.3      28   G28       0.1065
    883 O4'        -8.7670  -20.1560  -15.1980 O.3      28   G28      -0.3548
    884 C3'       -10.5570  -21.3590  -16.1950 C.3      28   G28       0.2022
    885 O3'       -11.7560  -22.0590  -15.8320 O.3      28   G28      -0.5246
    886 C2'       -10.8120  -19.8420  -16.3510 C.3      28   G28       0.0670
    887 O2'       -12.0190  -19.4250  -15.7210 O.3      28   G28      -0.6139
    888 C1'        -9.6510  -19.1420  -15.6350 C.3      28   G28       0.0191
    889 N1        -10.5310  -14.9060  -18.2920 N.am     28   G28      -0.4787
    890 C2        -11.2440  -15.4970  -17.3080 C.2      28   G28       0.7657
    891 N2        -12.5140  -15.2120  -17.2370 N.pl3    28   G28      -0.9672
    892 N3        -10.8470  -16.5280  -16.5810 N.2      28   G28      -0.6323
    893 C4         -9.6160  -16.9900  -16.9630 C.ar     28   G28       0.1222
    894 C5         -8.8010  -16.4730  -17.9500 C.ar     28   G28       0.1744
    895 C6         -9.2780  -15.3230  -18.6800 C.2      28   G28       0.4770
    896 O6         -8.8010  -14.7100  -19.6280 O.2      28   G28      -0.5597
    897 N7         -7.6420  -17.2460  -18.0580 N.ar     28   G28      -0.5709
    898 C8         -7.8110  -18.2040  -17.1870 C.ar     28   G28       0.1374
    899 N9         -9.0080  -18.1420  -16.5180 N.ar     28   G28       0.0492
    900 OP1        -6.6140  -23.7720  -11.9700 O.co2    28   G28      -0.7760
    901 OP2        -6.4610  -24.5270  -14.3900 O.co2    28   G28      -0.7760
    902 H5'        -9.0381  -23.4774  -15.1649 H        28   G28       0.0679
    903 H5''       -7.7602  -22.4125  -15.8022 H        28   G28       0.0679
    904 H4'       -10.0348  -21.3341  -14.1124 H        28   G28       0.1174
    905 H3'       -10.1356  -21.7721  -17.1114 H        28   G28       0.0615
    906 H2'       -10.8237  -19.5685  -17.4061 H        28   G28       0.0972
    907 H1'       -10.0456  -18.6267  -14.7593 H        28   G28       0.2006
    908 H1        -10.9399  -14.1151  -18.7688 H        28   G28       0.3424
    909 H8         -7.0759  -18.9750  -17.0091 H        28   G28       0.1640
    910 H21       -12.9088  -14.5015  -17.8365 H        28   G28       0.4364
    911 H22       -13.1046  -15.7029  -16.5810 H        28   G28       0.4364
    912 HO2'      -12.7562  -19.5571  -16.3216 H        28   G28       0.4186
    913 P         -12.9330  -22.4010  -16.8900 P.3      29   U29       1.1662
    914 C5'       -14.2800  -20.8640  -18.6130 C.3      29   U29       0.0558
    915 O5'       -13.4470  -20.9660  -17.4510 O.3      29   U29      -0.4989
    916 C4'       -14.5790  -19.3900  -18.9720 C.3      29   U29       0.1065
    917 O4'       -13.3980  -18.7310  -19.4170 O.3      29   U29      -0.3548
    918 C3'       -15.6040  -19.1370  -20.1000 C.3      29   U29       0.2022
    919 O3'       -16.9630  -19.2140  -19.6530 O.3      29   U29      -0.5246
    920 C2'       -15.2000  -17.7150  -20.5630 C.3      29   U29       0.0670
    921 O2'       -16.0240  -16.6950  -20.0120 O.3      29   U29      -0.6139
    922 C1'       -13.7990  -17.4950  -19.9820 C.3      29   U29       0.0674
    923 N1        -12.8290  -16.9330  -20.9680 N.am     29   U29       0.0418
    924 C2        -12.4790  -15.5770  -20.8590 C.2      29   U29       0.4687
    925 O2        -12.9190  -14.8230  -19.9860 O.2      29   U29      -0.5477
    926 N3        -11.6160  -15.0700  -21.8080 N.am     29   U29      -0.3549
    927 C4        -11.1700  -15.7390  -22.9210 C.2      29   U29       0.5952
    928 O4        -10.6310  -15.1120  -23.8250 O.2      29   U29      -0.5761
    929 C5        -11.5840  -17.1230  -22.9860 C.2      29   U29      -0.3635
    930 C6        -12.3720  -17.6840  -22.0290 C.2      29   U29      -0.1126
    931 OP1       -14.0520  -22.9890  -16.1190 O.co2    29   U29      -0.7760
    932 OP2       -12.3440  -23.1610  -18.0040 O.co2    29   U29      -0.7760
    933 H5'       -13.7729  -21.3368  -19.4541 H        29   U29       0.0679
    934 H5''      -15.2198  -21.3833  -18.4251 H        29   U29       0.0679
    935 H4'       -14.9317  -18.8855  -18.0724 H        29   U29       0.1174
    936 H3'       -15.4423  -19.8477  -20.9104 H        29   U29       0.0615
    937 H2'       -15.1821  -17.6526  -21.6511 H        29   U29       0.0972
    938 H1'       -13.8912  -16.7768  -19.1672 H        29   U29       0.1824
    939 H3        -11.2837  -14.1259  -21.6726 H        29   U29       0.3154
    940 H5        -11.2582  -17.7291  -23.8184 H        29   U29       0.1811
    941 H6        -12.6417  -18.7273  -22.1017 H        29   U29       0.2188
    942 HO2'      -16.8757  -16.6970  -20.4549 H        29   U29       0.4186
    943 P         -18.2200  -19.1960  -20.6730 P.3      30   U30       1.1662
    944 C5'       -18.6170  -17.3040  -22.5400 C.3      30   U30       0.0558
    945 O5'       -18.3250  -17.6610  -21.1820 O.3      30   U30      -0.4989
    946 C4'       -18.7190  -15.7670  -22.6440 C.3      30   U30       0.1065
    947 O4'       -17.5120  -15.2320  -22.1310 O.3      30   U30      -0.3548
    948 C3'       -18.9520  -15.0970  -24.0270 C.3      30   U30       0.2022
    949 O3'       -20.3090  -14.6670  -24.1800 O.3      30   U30      -0.5246
    950 C2'       -17.9780  -13.8880  -23.9800 C.3      30   U30       0.0670
    951 O2'       -18.5600  -12.6040  -24.1520 O.3      30   U30      -0.6139
    952 C1'       -17.4370  -13.8980  -22.5540 C.3      30   U30       0.0674
    953 N1        -16.0640  -13.3590  -22.3820 N.am     30   U30       0.0418
    954 C2        -15.8400  -12.4710  -21.3200 C.2      30   U30       0.4687
    955 O2        -16.7130  -12.0650  -20.5480 O.2      30   U30      -0.5477
    956 N3        -14.5570  -12.0020  -21.1600 N.am     30   U30      -0.3549
    957 C4        -13.4830  -12.3190  -21.9480 C.2      30   U30       0.5952
    958 O4        -12.3800  -11.8840  -21.6520 O.2      30   U30      -0.5761
    959 C5        -13.7820  -13.2200  -23.0350 C.2      30   U30      -0.3635
    960 C6        -15.0300  -13.7270  -23.2190 C.2      30   U30      -0.1126
    961 OP1       -19.4420  -19.4740  -19.8820 O.co2    30   U30      -0.7760
    962 OP2       -17.8870  -20.0550  -21.8210 O.co2    30   U30      -0.7760
    963 H5'       -17.8200  -17.6623  -23.1915 H        30   U30       0.0679
    964 H5''      -19.5635  -17.7537  -22.8401 H        30   U30       0.0679
    965 H4'       -19.5257  -15.4468  -21.9847 H        30   U30       0.1174
    966 H3'       -18.6752  -15.7781  -24.8317 H        30   U30       0.0615
    967 H2'       -17.1653  -14.0314  -24.6920 H        30   U30       0.0972
    968 H1'       -18.1114  -13.3085  -21.9329 H        30   U30       0.1824
    969 H3        -14.3922  -11.3667  -20.3923 H        30   U30       0.3154
    970 H5        -12.9945  -13.4985  -23.7196 H        30   U30       0.1811
    971 H6        -15.2135  -14.4220  -24.0251 H        30   U30       0.2188
    972 HO2'      -18.8847  -12.5172  -25.0512 H        30   U30       0.4186
    973 P         -20.9610  -14.3540  -25.6300 P.3      31   G31       1.1662
    974 C5'       -19.7830  -13.0470  -27.6570 C.3      31   G31       0.0558
    975 O5'       -20.0600  -13.1590  -26.2570 O.3      31   G31      -0.4989
    976 C4'       -18.7070  -11.9690  -27.9370 C.3      31   G31       0.1065
    977 O4'       -17.6270  -12.0590  -27.0080 O.3      31   G31      -0.3548
    978 C3'       -18.1330  -11.9580  -29.3730 C.3      31   G31       0.2022
    979 O3'       -18.5630  -10.7940  -30.0840 O.3      31   G31      -0.5246
    980 C2'       -16.6110  -11.8860  -29.1480 C.3      31   G31       0.0670
    981 O2'       -16.1670  -10.5470  -29.2920 O.3      31   G31      -0.6139
    982 C1'       -16.3950  -12.2720  -27.6850 C.3      31   G31       0.0191
    983 N1        -12.4770  -15.0880  -25.9940 N.am     31   G31      -0.4787
    984 C2        -12.5240  -13.7820  -26.3410 C.2      31   G31       0.7657
    985 N2        -11.4870  -13.0610  -26.0140 N.pl3    31   G31      -0.9672
    986 N3        -13.6000  -13.1580  -26.8160 N.2      31   G31      -0.6323
    987 C4        -14.6630  -14.0020  -27.0040 C.ar     31   G31       0.1222
    988 C5        -14.7080  -15.3480  -26.7010 C.ar     31   G31       0.1744
    989 C6        -13.5360  -15.9590  -26.1260 C.2      31   G31       0.4770
    990 O6        -13.3860  -17.0860  -25.6650 O.2      31   G31      -0.5597
    991 N7        -15.9830  -15.8540  -26.9690 N.ar     31   G31      -0.5709
    992 C8        -16.6370  -14.8300  -27.4410 C.ar     31   G31       0.1374
    993 N9        -15.9190  -13.6590  -27.4600 N.ar     31   G31       0.0492
    994 OP1       -22.3190  -13.8140  -25.3930 O.co2    31   G31      -0.7760
    995 OP2       -20.7910  -15.5560  -26.4610 O.co2    31   G31      -0.7760
    996 H5'       -19.4254  -14.0085  -28.0254 H        31   G31       0.0679
    997 H5''      -20.7002  -12.7815  -28.1827 H        31   G31       0.0679
    998 H4'       -19.1809  -11.0003  -27.7783 H        31   G31       0.1174
    999 H3'       -18.4060  -12.8666  -29.9097 H        31   G31       0.0615
   1000 H2'       -16.0767  -12.5574  -29.8202 H        31   G31       0.0972
   1001 H1'       -15.6568  -11.5903  -27.2626 H        31   G31       0.2006
   1002 H1        -11.6124  -15.4469  -25.6148 H        31   G31       0.3424
   1003 H8        -17.6576  -14.8966  -27.7880 H        31   G31       0.1640
   1004 H21       -10.6811  -13.4970  -25.5891 H        31   G31       0.4364
   1005 H22       -11.4901  -12.0657  -26.1859 H        31   G31       0.4364
   1006 HO2'      -16.2867  -10.2658  -30.2021 H        31   G31       0.4186
   1007 P         -18.9610  -10.8260  -31.6430 P.3      32   U32       1.1662
   1008 C5'       -16.7380   -9.8590  -32.7700 C.3      32   U32       0.0558
   1009 O5'       -17.5680  -10.9850  -32.4680 O.3      32   U32      -0.4989
   1010 C4'       -15.4160  -10.1350  -33.5390 C.3      32   U32       0.1065
   1011 O4'       -14.8060  -11.3690  -33.1650 O.3      32   U32      -0.3548
   1012 C3'       -15.4780  -10.1870  -35.0740 C.3      32   U32       0.2022
   1013 O3'       -15.5950   -8.9010  -35.6840 O.3      32   U32      -0.5246
   1014 C2'       -14.1170  -10.8430  -35.3780 C.3      32   U32       0.0670
   1015 O2'       -13.0510   -9.9100  -35.5040 O.3      32   U32      -0.6139
   1016 C1'       -13.7940  -11.6700  -34.1290 C.3      32   U32       0.0674
   1017 N1        -13.6570  -13.1200  -34.4510 N.am     32   U32       0.0418
   1018 C2        -12.4400  -13.5640  -34.9940 C.2      32   U32       0.4687
   1019 O2        -11.5110  -12.8100  -35.2640 O.2      32   U32      -0.5477
   1020 N3        -12.3040  -14.9180  -35.2260 N.am     32   U32      -0.3549
   1021 C4        -13.2660  -15.8660  -34.9790 C.2      32   U32       0.5952
   1022 O4        -13.0420  -17.0490  -35.2000 O.2      32   U32      -0.5761
   1023 C5        -14.5090  -15.3380  -34.4520 C.2      32   U32      -0.3635
   1024 C6        -14.6780  -14.0110  -34.2040 C.2      32   U32      -0.1126
   1025 OP1       -19.5400   -9.4950  -31.9250 O.co2    32   U32      -0.7760
   1026 OP2       -19.7910  -12.0310  -31.8320 O.co2    32   U32      -0.7760
   1027 H5'       -17.3289   -9.1686  -33.3719 H        32   U32       0.0679
   1028 H5''      -16.4872   -9.3620  -31.8328 H        32   U32       0.0679
   1029 H4'       -14.7192   -9.3400  -33.2735 H        32   U32       0.1174
   1030 H3'       -16.2918  -10.8355  -35.3984 H        32   U32       0.0615
   1031 H2'       -14.1815  -11.4804  -36.2598 H        32   U32       0.0972
   1032 H1'       -12.8396  -11.3222  -33.7336 H        32   U32       0.1824
   1033 H3        -11.4254  -15.2372  -35.6085 H        32   U32       0.3154
   1034 H5        -15.3240  -16.0174  -34.2505 H        32   U32       0.1811
   1035 H6        -15.6185  -13.6540  -33.8110 H        32   U32       0.2188
   1036 HO2'      -12.6890   -9.9550  -36.3920 H        32   U32       0.4186
   1037 P         -15.9100   -8.7350  -37.2580 P.3      33   C33       1.1662
   1038 C5'       -13.4930   -8.5520  -38.3770 C.3      33   C33       0.0558
   1039 O5'       -14.6390   -9.3460  -38.0640 O.3      33   C33      -0.4989
   1040 C4'       -12.3060   -9.3510  -38.9640 C.3      33   C33       0.1065
   1041 O4'       -12.0230  -10.4930  -38.1550 O.3      33   C33      -0.3548
   1042 C3'       -12.4780   -9.8430  -40.4090 C.3      33   C33       0.2022
   1043 O3'       -12.0850   -8.8440  -41.3550 O.3      33   C33      -0.5246
   1044 C2'       -11.5250  -11.0520  -40.4120 C.3      33   C33       0.0670
   1045 O2'       -10.2010  -10.6930  -40.7720 O.3      33   C33      -0.6139
   1046 C1'       -11.4400  -11.5190  -38.9590 C.3      33   C33       0.0066
   1047 N1        -12.1530  -12.8150  -38.7900 N.am     33   C33      -0.0484
   1048 C2        -11.4320  -14.0220  -38.8670 C.2      33   C33       0.7538
   1049 O2        -10.2260  -14.0570  -39.1120 O.2      33   C33      -0.6252
   1050 N3        -12.0630  -15.2090  -38.6860 N.2      33   C33      -0.7584
   1051 C4        -13.3600  -15.2070  -38.4820 C.2      33   C33       0.8185
   1052 N4        -13.9060  -16.3690  -38.2770 N.pl3    33   C33      -0.9530
   1053 C5        -14.1490  -14.0270  -38.4110 C.2      33   C33      -0.5215
   1054 C6        -13.5110  -12.8430  -38.5810 C.2      33   C33       0.0053
   1055 OP1       -15.9870   -7.2810  -37.5350 O.co2    33   C33      -0.7760
   1056 OP2       -17.0820   -9.5810  -37.5540 O.co2    33   C33      -0.7760
   1057 H5'       -13.7895   -7.7970  -39.1052 H        33   C33       0.0679
   1058 H5''      -13.1594   -8.0487  -37.4695 H        33   C33       0.0679
   1059 H4'       -11.4291   -8.7041  -38.9387 H        33   C33       0.1174
   1060 H3'       -13.5050  -10.1611  -40.5884 H        33   C33       0.0615
   1061 H2'       -11.9032  -11.8459  -41.0560 H        33   C33       0.0972
   1062 H1'       -10.3935  -11.6442  -38.6810 H        33   C33       0.2029
   1063 H5        -15.2126  -14.0717  -38.2292 H        33   C33       0.1928
   1064 H6        -14.0710  -11.9200  -38.5521 H        33   C33       0.1958
   1065 H41       -13.3400  -17.2050  -38.3045 H        33   C33       0.4234
   1066 H42       -14.8963  -16.4357  -38.0902 H        33   C33       0.4234
   1067 HO2'      -10.1096  -10.7220  -41.7272 H        33   C33       0.4186
   1068 P         -12.3960   -8.9660  -42.9310 P.3      34   G34       1.1662
   1069 C5'       -10.1640   -9.9430  -44.0140 C.3      34   G34       0.0558
   1070 O5'       -11.4630  -10.1770  -43.4790 O.3      34   G34      -0.4989
   1071 C4'        -9.4310  -11.2310  -44.4470 C.3      34   G34       0.1065
   1072 O4'        -9.4860  -12.2170  -43.4180 O.3      34   G34      -0.3548
   1073 C3'        -9.9220  -11.8850  -45.7520 C.3      34   G34       0.2022
   1074 O3'        -9.2240  -11.3690  -46.8960 O.3      34   G34      -0.5246
   1075 C2'        -9.5060  -13.3440  -45.4990 C.3      34   G34       0.0670
   1076 O2'        -8.1570  -13.5210  -45.9060 O.3      34   G34      -0.6139
   1077 C1'        -9.5880  -13.5230  -43.9830 C.3      34   G34       0.0191
   1078 N1        -11.8910  -18.0160  -42.9750 N.am     34   G34      -0.4787
   1079 C2        -10.7130  -17.7660  -43.5860 C.2      34   G34       0.7657
   1080 N2        -10.0700  -18.8080  -44.0440 N.pl3    34   G34      -0.9672
   1081 N3        -10.2310  -16.5530  -43.8580 N.2      34   G34      -0.6323
   1082 C4        -11.0620  -15.5460  -43.4340 C.ar     34   G34       0.1222
   1083 C5        -12.2810  -15.6960  -42.8020 C.ar     34   G34       0.1744
   1084 C6        -12.7360  -17.0340  -42.5050 C.2      34   G34       0.4770
   1085 O6        -13.7580  -17.4260  -41.9410 O.2      34   G34      -0.5597
   1086 N7        -12.8690  -14.4430  -42.5910 N.ar     34   G34      -0.5709
   1087 C8        -11.9920  -13.6010  -43.0660 C.ar     34   G34       0.1374
   1088 N9        -10.8480  -14.1850  -43.5520 N.ar     34   G34       0.0492
   1089 OP1       -11.9350   -7.7110  -43.5650 O.co2    34   G34      -0.7760
   1090 OP2       -13.8070   -9.3740  -43.0850 O.co2    34   G34      -0.7760
   1091 H5'       -10.2619   -9.2937  -44.8840 H        34   G34       0.0679
   1092 H5''       -9.5619   -9.4330  -43.2620 H        34   G34       0.0679
   1093 H4'        -8.3819  -10.9725  -44.5905 H        34   G34       0.1174
   1094 H3'       -11.0019  -11.7905  -45.8656 H        34   G34       0.0615
   1095 H2'       -10.1686  -14.0388  -46.0151 H        34   G34       0.0972
   1096 H1'        -8.7402  -14.1215  -43.6496 H        34   G34       0.2006
   1097 H1        -12.1692  -18.9795  -42.8554 H        34   G34       0.3424
   1098 H8        -12.1528  -12.5331  -43.0760 H        34   G34       0.1640
   1099 H21       -10.4376  -19.7362  -43.8911 H        34   G34       0.4364
   1100 H22        -9.2052  -18.6848  -44.5510 H        34   G34       0.4364
   1101 HO2'       -8.1302  -13.7384  -46.8407 H        34   G34       0.4186
   1102 P          -9.7900  -11.4880  -48.4020 P.3      35   U35       1.1662
   1103 C5'        -8.5370  -13.6020  -49.4020 C.3      35   U35       0.0558
   1104 O5'        -9.6950  -13.0520  -48.7860 O.3      35   U35      -0.4989
   1105 C4'        -8.6780  -15.1060  -49.7020 C.3      35   U35       0.1065
   1106 O4'        -8.9040  -15.8080  -48.4840 O.3      35   U35      -0.3548
   1107 C3'        -9.7820  -15.4700  -50.7120 C.3      35   U35       0.2022
   1108 O3'        -9.2720  -15.6080  -52.0490 O.3      35   U35      -0.5246
   1109 C2'       -10.2740  -16.8120  -50.1420 C.3      35   U35       0.0670
   1110 O2'        -9.7400  -17.9310  -50.8350 O.3      35   U35      -0.6139
   1111 C1'        -9.8110  -16.8790  -48.6890 C.3      35   U35       0.0674
   1112 N1        -10.9810  -16.8300  -47.7650 N.am     35   U35       0.0418
   1113 C2        -11.5410  -18.0460  -47.3440 C.2      35   U35       0.4687
   1114 O2        -11.1480  -19.1410  -47.7420 O.2      35   U35      -0.5477
   1115 N3        -12.6820  -17.9800  -46.5710 N.am     35   U35      -0.3549
   1116 C4        -13.3390  -16.8250  -46.2230 C.2      35   U35       0.5952
   1117 O4        -14.4320  -16.8930  -45.6760 O.2      35   U35      -0.5761
   1118 C5        -12.7260  -15.6090  -46.7070 C.2      35   U35      -0.3635
   1119 C6        -11.5920  -15.6360  -47.4540 C.2      35   U35      -0.1126
   1120 OP1        -8.8450  -10.7620  -49.2810 O.co2    35   U35      -0.7760
   1121 OP2       -11.2150  -11.1140  -48.4030 O.co2    35   U35      -0.7760
   1122 H5'        -8.3579  -13.0753  -50.3393 H        35   U35       0.0679
   1123 H5''       -7.6815  -13.4519  -48.7434 H        35   U35       0.0679
   1124 H4'        -7.7287  -15.4517  -50.1113 H        35   U35       0.1174
   1125 H3'       -10.5814  -14.7295  -50.6847 H        35   U35       0.0615
   1126 H2'       -11.3628  -16.8462  -50.1792 H        35   U35       0.0972
   1127 H1'        -9.2822  -17.8194  -48.5337 H        35   U35       0.1824
   1128 H3        -13.0652  -18.8515  -46.2337 H        35   U35       0.3154
   1129 H5        -13.1795  -14.6581  -46.4695 H        35   U35       0.1811
   1130 H6        -11.1644  -14.7097  -47.8083 H        35   U35       0.2188
   1131 HO2'      -10.2497  -18.0865  -51.6335 H        35   U35       0.4186
   1132 P         -10.2180  -15.6750  -53.3560 P.3      36   A36       1.1662
   1133 C5'       -10.6820  -18.2360  -53.8960 C.3      36   A36       0.0558
   1134 O5'       -11.0680  -17.0460  -53.2190 O.3      36   A36      -0.4989
   1135 C4'       -11.6930  -19.3800  -53.6930 C.3      36   A36       0.1065
   1136 O4'       -11.9500  -19.5580  -52.3040 O.3      36   A36      -0.3548
   1137 C3'       -13.0380  -19.1890  -54.4130 C.3      36   A36       0.2022
   1138 O3'       -13.0140  -19.7870  -55.7220 O.3      36   A36      -0.5246
   1139 C2'       -13.9840  -19.9310  -53.4450 C.3      36   A36       0.0670
   1140 O2'       -14.2550  -21.2620  -53.8720 O.3      36   A36      -0.6139
   1141 C1'       -13.2830  -19.9960  -52.0910 C.3      36   A36       0.0394
   1142 N1        -16.8940  -19.9240  -48.3900 N.ar     36   A36      -0.7615
   1143 C2        -16.5890  -20.8180  -49.3140 C.ar     36   A36       0.5875
   1144 N3        -15.6820  -20.7360  -50.2810 N.ar     36   A36      -0.6997
   1145 C4        -14.9770  -19.5680  -50.2180 C.ar     36   A36       0.3053
   1146 C5        -15.1540  -18.5550  -49.3110 C.ar     36   A36       0.0515
   1147 C6        -16.1540  -18.8120  -48.3310 C.ar     36   A36       0.7009
   1148 N6        -16.4940  -18.0110  -47.3410 N.pl3    36   A36      -0.9019
   1149 N7        -14.3380  -17.4610  -49.6410 N.ar     36   A36      -0.6073
   1150 C8        -13.6750  -17.8780  -50.6870 C.ar     36   A36       0.2006
   1151 N9        -13.9610  -19.1640  -51.0620 N.ar     36   A36      -0.0251
   1152 OP1        -9.3380  -15.8280  -54.5390 O.co2    36   A36      -0.7760
   1153 OP2       -11.1830  -14.5630  -53.3180 O.co2    36   A36      -0.7760
   1154 H5'       -10.6040  -18.0227  -54.9621 H        36   A36       0.0679
   1155 H5''       -9.7074  -18.5543  -53.5259 H        36   A36       0.0679
   1156 H4'       -11.2398  -20.2972  -54.0692 H        36   A36       0.1174
   1157 H3'       -13.2978  -18.1322  -54.4746 H        36   A36       0.0615
   1158 H2'       -14.9186  -19.3784  -53.3488 H        36   A36       0.0972
   1159 H1'       -13.2647  -21.0318  -51.7520 H        36   A36       0.2007
   1160 H2        -17.1526  -21.7386  -49.2782 H        36   A36       0.0473
   1161 H8        -12.9613  -17.2604  -51.2119 H        36   A36       0.1553
   1162 HO2'      -14.8892  -21.2445  -54.5925 H        36   A36       0.4186
   1163 H61       -17.4011  -18.2318  -46.9556 H        36   A36       0.4115
   1164 H62       -15.9108  -17.2582  -47.0044 H        36   A36       0.4115
   1165 P         -14.1800  -19.6100  -56.8280 P.3      37   C37       1.1662
   1166 C5'       -16.5780  -19.1640  -55.8020 C.3      37   C37       0.0558
   1167 O5'       -15.5110  -20.0690  -56.0490 O.3      37   C37      -0.4989
   1168 C4'       -17.4380  -19.6420  -54.6260 C.3      37   C37       0.1065
   1169 O4'       -17.1620  -18.8970  -53.4520 O.3      37   C37      -0.3548
   1170 C3'       -18.9300  -19.3970  -54.8240 C.3      37   C37       0.2022
   1171 O3'       -19.6090  -20.4920  -55.4050 O.3      37   C37      -0.6541
   1172 C2'       -19.4330  -19.2500  -53.3800 C.3      37   C37       0.0670
   1173 O2'       -20.2300  -20.3590  -52.9710 O.3      37   C37      -0.6139
   1174 C1'       -18.1720  -19.1690  -52.5030 C.3      37   C37       0.0066
   1175 N1        -18.2640  -18.1310  -51.4260 N.am     37   C37      -0.0484
   1176 C2        -19.3290  -18.1890  -50.5120 C.2      37   C37       0.7538
   1177 O2        -20.2110  -19.0490  -50.6030 O.2      37   C37      -0.6252
   1178 N3        -19.4860  -17.2510  -49.5530 N.2      37   C37      -0.7584
   1179 C4        -18.5290  -16.3580  -49.3900 C.2      37   C37       0.8185
   1180 N4        -18.6940  -15.5120  -48.4160 N.pl3    37   C37      -0.9530
   1181 C5        -17.3960  -16.2800  -50.2380 C.2      37   C37      -0.5215
   1182 C6        -17.2820  -17.1870  -51.2390 C.2      37   C37       0.0053
   1183 OP1       -13.9620  -20.6140  -57.8920 O.co2    37   C37      -0.7760
   1184 OP2       -14.3310  -18.1900  -57.1970 O.co2    37   C37      -0.7760
   1185 H5'       -16.1664  -18.1823  -55.5674 H        37   C37       0.0679
   1186 H5''      -17.1994  -19.0891  -56.6944 H        37   C37       0.0679
   1187 H4'       -17.2582  -20.7013  -54.4427 H        37   C37       0.1174
   1188 H3'       -19.1036  -18.4835  -55.3928 H        37   C37       0.0615
   1189 H2'       -20.0077  -18.3289  -53.2831 H        37   C37       0.0972
   1190 H1'       -17.9864  -20.1425  -52.0493 H        37   C37       0.2029
   1191 H5        -16.6441  -15.5188  -50.0907 H        37   C37       0.1928
   1192 H6        -16.4200  -17.1681  -51.8894 H        37   C37       0.1958
   1193 H41       -19.5132  -15.5720  -47.8282 H        37   C37       0.4234
   1194 H42       -18.0029  -14.7950  -48.2474 H        37   C37       0.4234
   1195 HO2'      -20.3173  -20.3556  -52.0150 H        37   C37       0.4186
   1196 HO3'      -19.3136  -20.6080  -56.3110 H        37   C37       0.4376
@<TRIPOS>BOND
     1    1    2 1
     2    1    3 1
     3    3    5 1
     4    3    4 1
     5    4    9 1
     6    5    7 1
     7    5    6 1
     8    7    9 1
     9    7    8 1
    10    9   20 1
    11   10   11 1
    12   10   16 am
    13   11   12 2
    14   11   13 2
    15   13   14 1
    16   14   20 ar
    17   14   15 ar
    18   15   18 ar
    19   15   16 1
    20   16   17 2
    21   18   19 ar
    22   19   20 ar
    23   33   52 1
    24   33   51 1
    25   33   35 1
    26   34   36 1
    27   34   35 1
    28   36   38 1
    29   36   37 1
    30   37   42 1
    31   38   39 1
    32   38   40 1
    33   40   41 1
    34   40   42 1
    35   42   43 1
    36   43   50 1
    37   43   44 am
    38   44   46 am
    39   44   45 2
    40   46   47 am
    41   47   48 2
    42   47   49 1
    43   49   50 2
    44   33    6 1
    45   63   84 1
    46   63   83 1
    47   63   65 1
    48   64   66 1
    49   64   65 1
    50   66   67 1
    51   66   68 1
    52   67   72 1
    53   68   70 1
    54   68   69 1
    55   70   72 1
    56   70   71 1
    57   72   82 1
    58   73   78 ar
    59   73   74 ar
    60   74   75 ar
    61   75   76 ar
    62   76   77 ar
    63   76   82 ar
    64   77   78 ar
    65   77   80 ar
    66   78   79 1
    67   80   81 ar
    68   81   82 ar
    69   39   63 1
    70   96  115 1
    71   96   98 1
    72   96  114 1
    73   97   98 1
    74   97   99 1
    75   99  101 1
    76   99  100 1
    77  100  105 1
    78  101  103 1
    79  101  102 1
    80  103  104 1
    81  103  105 1
    82  105  106 1
    83  106  107 am
    84  106  113 1
    85  107  108 2
    86  107  109 1
    87  109  110 2
    88  110  112 2
    89  110  111 2
    90  112  113 2
    91   69   96 1
    92  127  148 1
    93  127  149 1
    94  127  129 1
    95  128  129 1
    96  128  130 1
    97  130  132 1
    98  130  131 1
    99  131  136 1
   100  132  134 1
   101  132  133 1
   102  134  136 1
   103  134  135 1
   104  136  147 1
   105  137  138 1
   106  137  143 am
   107  138  139 2
   108  138  140 2
   109  140  141 1
   110  141  147 ar
   111  141  142 ar
   112  142  145 ar
   113  142  143 1
   114  143  144 2
   115  145  146 ar
   116  146  147 ar
   117  102  127 1
   118  161  182 1
   119  161  181 1
   120  161  163 1
   121  162  164 1
   122  162  163 1
   123  164  165 1
   124  164  166 1
   125  165  170 1
   126  166  168 1
   127  166  167 1
   128  168  170 1
   129  168  169 1
   130  170  180 1
   131  171  176 ar
   132  171  172 ar
   133  172  173 ar
   134  173  174 ar
   135  174  175 ar
   136  174  180 ar
   137  175  176 ar
   138  175  178 ar
   139  176  177 1
   140  178  179 ar
   141  179  180 ar
   142  133  161 1
   143  194  215 1
   144  194  214 1
   145  194  196 1
   146  195  197 1
   147  195  196 1
   148  197  198 1
   149  197  199 1
   150  198  203 1
   151  199  201 1
   152  199  200 1
   153  201  203 1
   154  201  202 1
   155  203  213 1
   156  204  209 ar
   157  204  205 ar
   158  205  206 ar
   159  206  207 ar
   160  207  208 ar
   161  207  213 ar
   162  208  209 ar
   163  208  211 ar
   164  209  210 1
   165  211  212 ar
   166  212  213 ar
   167  167  194 1
   168  227  248 1
   169  227  249 1
   170  227  229 1
   171  228  229 1
   172  228  230 1
   173  230  232 1
   174  230  231 1
   175  231  236 1
   176  232  234 1
   177  232  233 1
   178  234  236 1
   179  234  235 1
   180  236  247 1
   181  237  238 1
   182  237  243 am
   183  238  239 2
   184  238  240 2
   185  240  241 1
   186  241  247 ar
   187  241  242 ar
   188  242  245 ar
   189  242  243 1
   190  243  244 2
   191  245  246 ar
   192  246  247 ar
   193  200  227 1
   194  261  282 1
   195  261  283 1
   196  261  263 1
   197  262  263 1
   198  262  264 1
   199  264  266 1
   200  264  265 1
   201  265  270 1
   202  266  268 1
   203  266  267 1
   204  268  270 1
   205  268  269 1
   206  270  281 1
   207  271  272 1
   208  271  277 am
   209  272  273 2
   210  272  274 2
   211  274  275 1
   212  275  281 ar
   213  275  276 ar
   214  276  279 ar
   215  276  277 1
   216  277  278 2
   217  279  280 ar
   218  280  281 ar
   219  233  261 1
   220  295  316 1
   221  295  315 1
   222  295  297 1
   223  296  298 1
   224  296  297 1
   225  298  299 1
   226  298  300 1
   227  299  304 1
   228  300  302 1
   229  300  301 1
   230  302  304 1
   231  302  303 1
   232  304  314 1
   233  305  310 ar
   234  305  306 ar
   235  306  307 ar
   236  307  308 ar
   237  308  309 ar
   238  308  314 ar
   239  309  310 ar
   240  309  312 ar
   241  310  311 1
   242  312  313 ar
   243  313  314 ar
   244  267  295 1
   245  328  349 1
   246  328  348 1
   247  328  330 1
   248  329  331 1
   249  329  330 1
   250  331  332 1
   251  331  333 1
   252  332  337 1
   253  333  335 1
   254  333  334 1
   255  335  337 1
   256  335  336 1
   257  337  347 1
   258  338  343 ar
   259  338  339 ar
   260  339  340 ar
   261  340  341 ar
   262  341  342 ar
   263  341  347 ar
   264  342  343 ar
   265  342  345 ar
   266  343  344 1
   267  345  346 ar
   268  346  347 ar
   269  301  328 1
   270  361  382 1
   271  361  383 1
   272  361  363 1
   273  362  363 1
   274  362  364 1
   275  364  366 1
   276  364  365 1
   277  365  370 1
   278  366  368 1
   279  366  367 1
   280  368  370 1
   281  368  369 1
   282  370  381 1
   283  371  372 1
   284  371  377 am
   285  372  373 2
   286  372  374 2
   287  374  375 1
   288  375  381 ar
   289  375  376 ar
   290  376  379 ar
   291  376  377 1
   292  377  378 2
   293  379  380 ar
   294  380  381 ar
   295  334  361 1
   296  395  416 1
   297  395  417 1
   298  395  397 1
   299  396  397 1
   300  396  398 1
   301  398  400 1
   302  398  399 1
   303  399  404 1
   304  400  402 1
   305  400  401 1
   306  402  404 1
   307  402  403 1
   308  404  415 1
   309  405  406 1
   310  405  411 am
   311  406  407 2
   312  406  408 2
   313  408  409 1
   314  409  415 ar
   315  409  410 ar
   316  410  413 ar
   317  410  411 1
   318  411  412 2
   319  413  414 ar
   320  414  415 ar
   321  367  395 1
   322  429  448 1
   323  429  447 1
   324  429  431 1
   325  430  432 1
   326  430  431 1
   327  432  434 1
   328  432  433 1
   329  433  438 1
   330  434  435 1
   331  434  436 1
   332  436  437 1
   333  436  438 1
   334  438  439 1
   335  439  446 1
   336  439  440 am
   337  440  442 am
   338  440  441 2
   339  442  443 am
   340  443  444 2
   341  443  445 1
   342  445  446 2
   343  401  429 1
   344  459  478 1
   345  459  477 1
   346  459  461 1
   347  460  462 1
   348  460  461 1
   349  462  464 1
   350  462  463 1
   351  463  468 1
   352  464  465 1
   353  464  466 1
   354  466  467 1
   355  466  468 1
   356  468  469 1
   357  469  476 1
   358  469  470 am
   359  470  472 am
   360  470  471 2
   361  472  473 am
   362  473  474 2
   363  473  475 1
   364  475  476 2
   365  435  459 1
   366  489  508 1
   367  489  507 1
   368  489  491 1
   369  490  492 1
   370  490  491 1
   371  492  494 1
   372  492  493 1
   373  493  498 1
   374  494  495 1
   375  494  496 1
   376  496  497 1
   377  496  498 1
   378  498  499 1
   379  499  506 1
   380  499  500 am
   381  500  502 am
   382  500  501 2
   383  502  503 am
   384  503  504 2
   385  503  505 1
   386  505  506 2
   387  465  489 1
   388  519  540 1
   389  519  541 1
   390  519  521 1
   391  520  521 1
   392  520  522 1
   393  522  524 1
   394  522  523 1
   395  523  528 1
   396  524  526 1
   397  524  525 1
   398  526  528 1
   399  526  527 1
   400  528  539 1
   401  529  530 1
   402  529  535 am
   403  530  531 2
   404  530  532 2
   405  532  533 1
   406  533  539 ar
   407  533  534 ar
   408  534  537 ar
   409  534  535 1
   410  535  536 2
   411  537  538 ar
   412  538  539 ar
   413  495  519 1
   414  553  574 1
   415  553  575 1
   416  553  555 1
   417  554  555 1
   418  554  556 1
   419  556  558 1
   420  556  557 1
   421  557  562 1
   422  558  560 1
   423  558  559 1
   424  560  562 1
   425  560  561 1
   426  562  573 1
   427  563  564 1
   428  563  569 am
   429  564  565 2
   430  564  566 2
   431  566  567 1
   432  567  573 ar
   433  567  568 ar
   434  568  571 ar
   435  568  569 1
   436  569  570 2
   437  571  572 ar
   438  572  573 ar
   439  525  553 1
   440  587  606 1
   441  587  605 1
   442  587  589 1
   443  588  590 1
   444  588  589 1
   445  590  592 1
   446  590  591 1
   447  591  596 1
   448  592  593 1
   449  592  594 1
   450  594  595 1
   451  594  596 1
   452  596  597 1
   453  597  604 1
   454  597  598 am
   455  598  600 am
   456  598  599 2
   457  600  601 am
   458  601  602 2
   459  601  603 1
   460  603  604 2
   461  559  587 1
   462  617  638 1
   463  617  637 1
   464  617  619 1
   465  618  620 1
   466  618  619 1
   467  620  621 1
   468  620  622 1
   469  621  626 1
   470  622  624 1
   471  622  623 1
   472  624  626 1
   473  624  625 1
   474  626  636 1
   475  627  632 ar
   476  627  628 ar
   477  628  629 ar
   478  629  630 ar
   479  630  631 ar
   480  630  636 ar
   481  631  632 ar
   482  631  634 ar
   483  632  633 1
   484  634  635 ar
   485  635  636 ar
   486  593  617 1
   487  650  669 1
   488  650  668 1
   489  650  652 1
   490  651  653 1
   491  651  652 1
   492  653  655 1
   493  653  654 1
   494  654  659 1
   495  655  656 1
   496  655  657 1
   497  657  658 1
   498  657  659 1
   499  659  660 1
   500  660  667 1
   501  660  661 am
   502  661  663 am
   503  661  662 2
   504  663  664 am
   505  664  665 2
   506  664  666 1
   507  666  667 2
   508  623  650 1
   509  680  701 1
   510  680  702 1
   511  680  682 1
   512  681  682 1
   513  681  683 1
   514  683  685 1
   515  683  684 1
   516  684  689 1
   517  685  687 1
   518  685  686 1
   519  687  689 1
   520  687  688 1
   521  689  700 1
   522  690  691 1
   523  690  696 am
   524  691  692 2
   525  691  693 2
   526  693  694 1
   527  694  700 ar
   528  694  695 ar
   529  695  698 ar
   530  695  696 1
   531  696  697 2
   532  698  699 ar
   533  699  700 ar
   534  656  680 1
   535  714  735 1
   536  714  736 1
   537  714  716 1
   538  715  716 1
   539  715  717 1
   540  717  719 1
   541  717  718 1
   542  718  723 1
   543  719  721 1
   544  719  720 1
   545  721  723 1
   546  721  722 1
   547  723  734 1
   548  724  725 1
   549  724  730 am
   550  725  726 2
   551  725  727 2
   552  727  728 1
   553  728  734 ar
   554  728  729 ar
   555  729  732 ar
   556  729  730 1
   557  730  731 2
   558  732  733 ar
   559  733  734 ar
   560  686  714 1
   561  748  769 1
   562  748  770 1
   563  748  750 1
   564  749  750 1
   565  749  751 1
   566  751  753 1
   567  751  752 1
   568  752  757 1
   569  753  755 1
   570  753  754 1
   571  755  757 1
   572  755  756 1
   573  757  768 1
   574  758  759 1
   575  758  764 am
   576  759  760 2
   577  759  761 2
   578  761  762 1
   579  762  768 ar
   580  762  763 ar
   581  763  766 ar
   582  763  764 1
   583  764  765 2
   584  766  767 ar
   585  767  768 ar
   586  720  748 1
   587  782  803 1
   588  782  804 1
   589  782  784 1
   590  783  784 1
   591  783  785 1
   592  785  787 1
   593  785  786 1
   594  786  791 1
   595  787  789 1
   596  787  788 1
   597  789  791 1
   598  789  790 1
   599  791  802 1
   600  792  793 1
   601  792  798 am
   602  793  794 2
   603  793  795 2
   604  795  796 1
   605  796  802 ar
   606  796  797 ar
   607  797  800 ar
   608  797  798 1
   609  798  799 2
   610  800  801 ar
   611  801  802 ar
   612  754  782 1
   613  816  835 1
   614  816  834 1
   615  816  818 1
   616  817  819 1
   617  817  818 1
   618  819  821 1
   619  819  820 1
   620  820  825 1
   621  821  822 1
   622  821  823 1
   623  823  824 1
   624  823  825 1
   625  825  826 1
   626  826  833 1
   627  826  827 am
   628  827  829 am
   629  827  828 2
   630  829  830 am
   631  830  831 2
   632  830  832 1
   633  832  833 2
   634  788  816 1
   635  846  867 1
   636  846  866 1
   637  846  848 1
   638  847  849 1
   639  847  848 1
   640  849  850 1
   641  849  851 1
   642  850  855 1
   643  851  853 1
   644  851  852 1
   645  853  855 1
   646  853  854 1
   647  855  865 1
   648  856  861 ar
   649  856  857 ar
   650  857  858 ar
   651  858  859 ar
   652  859  860 ar
   653  859  865 ar
   654  860  861 ar
   655  860  863 ar
   656  861  862 1
   657  863  864 ar
   658  864  865 ar
   659  822  846 1
   660  879  900 1
   661  879  901 1
   662  879  881 1
   663  880  881 1
   664  880  882 1
   665  882  884 1
   666  882  883 1
   667  883  888 1
   668  884  886 1
   669  884  885 1
   670  886  888 1
   671  886  887 1
   672  888  899 1
   673  889  890 1
   674  889  895 am
   675  890  891 2
   676  890  892 2
   677  892  893 1
   678  893  899 ar
   679  893  894 ar
   680  894  897 ar
   681  894  895 1
   682  895  896 2
   683  897  898 ar
   684  898  899 ar
   685  852  879 1
   686  913  932 1
   687  913  931 1
   688  913  915 1
   689  914  916 1
   690  914  915 1
   691  916  918 1
   692  916  917 1
   693  917  922 1
   694  918  919 1
   695  918  920 1
   696  920  921 1
   697  920  922 1
   698  922  923 1
   699  923  930 1
   700  923  924 am
   701  924  926 am
   702  924  925 2
   703  926  927 am
   704  927  928 2
   705  927  929 1
   706  929  930 2
   707  885  913 1
   708  943  962 1
   709  943  961 1
   710  943  945 1
   711  944  946 1
   712  944  945 1
   713  946  948 1
   714  946  947 1
   715  947  952 1
   716  948  949 1
   717  948  950 1
   718  950  951 1
   719  950  952 1
   720  952  953 1
   721  953  960 1
   722  953  954 am
   723  954  956 am
   724  954  955 2
   725  956  957 am
   726  957  958 2
   727  957  959 1
   728  959  960 2
   729  919  943 1
   730  973  994 1
   731  973  995 1
   732  973  975 1
   733  974  975 1
   734  974  976 1
   735  976  978 1
   736  976  977 1
   737  977  982 1
   738  978  980 1
   739  978  979 1
   740  980  982 1
   741  980  981 1
   742  982  993 1
   743  983  984 1
   744  983  989 am
   745  984  985 2
   746  984  986 2
   747  986  987 1
   748  987  993 ar
   749  987  988 ar
   750  988  991 ar
   751  988  989 1
   752  989  990 2
   753  991  992 ar
   754  992  993 ar
   755  949  973 1
   756 1007 1026 1
   757 1007 1025 1
   758 1007 1009 1
   759 1008 1010 1
   760 1008 1009 1
   761 1010 1012 1
   762 1010 1011 1
   763 1011 1016 1
   764 1012 1013 1
   765 1012 1014 1
   766 1014 1015 1
   767 1014 1016 1
   768 1016 1017 1
   769 1017 1024 1
   770 1017 1018 am
   771 1018 1020 am
   772 1018 1019 2
   773 1020 1021 am
   774 1021 1022 2
   775 1021 1023 1
   776 1023 1024 2
   777  979 1007 1
   778 1037 1056 1
   779 1037 1039 1
   780 1037 1055 1
   781 1038 1039 1
   782 1038 1040 1
   783 1040 1042 1
   784 1040 1041 1
   785 1041 1046 1
   786 1042 1044 1
   787 1042 1043 1
   788 1044 1045 1
   789 1044 1046 1
   790 1046 1047 1
   791 1047 1048 am
   792 1047 1054 1
   793 1048 1049 2
   794 1048 1050 1
   795 1050 1051 2
   796 1051 1053 2
   797 1051 1052 2
   798 1053 1054 2
   799 1013 1037 1
   800 1068 1089 1
   801 1068 1090 1
   802 1068 1070 1
   803 1069 1070 1
   804 1069 1071 1
   805 1071 1073 1
   806 1071 1072 1
   807 1072 1077 1
   808 1073 1075 1
   809 1073 1074 1
   810 1075 1077 1
   811 1075 1076 1
   812 1077 1088 1
   813 1078 1079 1
   814 1078 1084 am
   815 1079 1080 2
   816 1079 1081 2
   817 1081 1082 1
   818 1082 1088 ar
   819 1082 1083 ar
   820 1083 1086 ar
   821 1083 1084 1
   822 1084 1085 2
   823 1086 1087 ar
   824 1087 1088 ar
   825 1043 1068 1
   826 1102 1121 1
   827 1102 1120 1
   828 1102 1104 1
   829 1103 1105 1
   830 1103 1104 1
   831 1105 1107 1
   832 1105 1106 1
   833 1106 1111 1
   834 1107 1108 1
   835 1107 1109 1
   836 1109 1110 1
   837 1109 1111 1
   838 1111 1112 1
   839 1112 1119 1
   840 1112 1113 am
   841 1113 1115 am
   842 1113 1114 2
   843 1115 1116 am
   844 1116 1117 2
   845 1116 1118 1
   846 1118 1119 2
   847 1074 1102 1
   848 1132 1153 1
   849 1132 1152 1
   850 1132 1134 1
   851 1133 1135 1
   852 1133 1134 1
   853 1135 1136 1
   854 1135 1137 1
   855 1136 1141 1
   856 1137 1139 1
   857 1137 1138 1
   858 1139 1141 1
   859 1139 1140 1
   860 1141 1151 1
   861 1142 1147 ar
   862 1142 1143 ar
   863 1143 1144 ar
   864 1144 1145 ar
   865 1145 1146 ar
   866 1145 1151 ar
   867 1146 1147 ar
   868 1146 1149 ar
   869 1147 1148 1
   870 1149 1150 ar
   871 1150 1151 ar
   872 1108 1132 1
   873 1166 1167 1
   874 1166 1168 1
   875 1168 1170 1
   876 1168 1169 1
   877 1169 1174 1
   878 1170 1172 1
   879 1170 1171 1
   880 1172 1173 1
   881 1172 1174 1
   882 1174 1175 1
   883 1175 1182 1
   884 1175 1176 am
   885 1176 1177 2
   886 1176 1178 1
   887 1178 1179 2
   888 1179 1181 2
   889 1179 1180 2
   890 1181 1182 2
   891 1165 1167 1
   892 1165 1183 1
   893 1165 1184 1
   894 1138 1165 1
   895   21    1 1
   896   22    1 1
   897   23    3 1
   898   24    5 1
   899   25    7 1
   900   26    9 1
   901   27   10 1
   902   28   19 1
   903   53   34 1
   904   54   34 1
   905   55   36 1
   906   56   38 1
   907   57   40 1
   908   58   42 1
   909   59   46 1
   910   60   49 1
   911   61   50 1
   912   85   64 1
   913   86   64 1
   914   87   66 1
   915   88   68 1
   916   89   70 1
   917   90   72 1
   918   91   74 1
   919   92   81 1
   920  116   97 1
   921  117   97 1
   922  118   99 1
   923  119  101 1
   924  120  103 1
   925  121  105 1
   926  122  112 1
   927  123  113 1
   928  150  128 1
   929  151  128 1
   930  152  130 1
   931  153  132 1
   932  154  134 1
   933  155  136 1
   934  156  137 1
   935  157  146 1
   936  183  162 1
   937  184  162 1
   938  185  164 1
   939  186  166 1
   940  187  168 1
   941  188  170 1
   942  189  172 1
   943  190  179 1
   944  216  195 1
   945  217  195 1
   946  218  197 1
   947  219  199 1
   948  220  201 1
   949  221  203 1
   950  222  205 1
   951  223  212 1
   952  250  228 1
   953  251  228 1
   954  252  230 1
   955  253  232 1
   956  254  234 1
   957  255  236 1
   958  256  237 1
   959  257  246 1
   960  284  262 1
   961  285  262 1
   962  286  264 1
   963  287  266 1
   964  288  268 1
   965  289  270 1
   966  290  271 1
   967  291  280 1
   968  317  296 1
   969  318  296 1
   970  319  298 1
   971  320  300 1
   972  321  302 1
   973  322  304 1
   974  323  306 1
   975  324  313 1
   976  350  329 1
   977  351  329 1
   978  352  331 1
   979  353  333 1
   980  354  335 1
   981  355  337 1
   982  356  339 1
   983  357  346 1
   984  384  362 1
   985  385  362 1
   986  386  364 1
   987  387  366 1
   988  388  368 1
   989  389  370 1
   990  390  371 1
   991  391  380 1
   992  418  396 1
   993  419  396 1
   994  420  398 1
   995  421  400 1
   996  422  402 1
   997  423  404 1
   998  424  405 1
   999  425  414 1
  1000  449  430 1
  1001  450  430 1
  1002  451  432 1
  1003  452  434 1
  1004  453  436 1
  1005  454  438 1
  1006  455  442 1
  1007  456  445 1
  1008  457  446 1
  1009  479  460 1
  1010  480  460 1
  1011  481  462 1
  1012  482  464 1
  1013  483  466 1
  1014  484  468 1
  1015  485  472 1
  1016  486  475 1
  1017  487  476 1
  1018  509  490 1
  1019  510  490 1
  1020  511  492 1
  1021  512  494 1
  1022  513  496 1
  1023  514  498 1
  1024  515  502 1
  1025  516  505 1
  1026  517  506 1
  1027  542  520 1
  1028  543  520 1
  1029  544  522 1
  1030  545  524 1
  1031  546  526 1
  1032  547  528 1
  1033  548  529 1
  1034  549  538 1
  1035  576  554 1
  1036  577  554 1
  1037  578  556 1
  1038  579  558 1
  1039  580  560 1
  1040  581  562 1
  1041  582  563 1
  1042  583  572 1
  1043  607  588 1
  1044  608  588 1
  1045  609  590 1
  1046  610  592 1
  1047  611  594 1
  1048  612  596 1
  1049  613  600 1
  1050  614  603 1
  1051  615  604 1
  1052  639  618 1
  1053  640  618 1
  1054  641  620 1
  1055  642  622 1
  1056  643  624 1
  1057  644  626 1
  1058  645  628 1
  1059  646  635 1
  1060  670  651 1
  1061  671  651 1
  1062  672  653 1
  1063  673  655 1
  1064  674  657 1
  1065  675  659 1
  1066  676  663 1
  1067  677  666 1
  1068  678  667 1
  1069  703  681 1
  1070  704  681 1
  1071  705  683 1
  1072  706  685 1
  1073  707  687 1
  1074  708  689 1
  1075  709  690 1
  1076  710  699 1
  1077  737  715 1
  1078  738  715 1
  1079  739  717 1
  1080  740  719 1
  1081  741  721 1
  1082  742  723 1
  1083  743  724 1
  1084  744  733 1
  1085  771  749 1
  1086  772  749 1
  1087  773  751 1
  1088  774  753 1
  1089  775  755 1
  1090  776  757 1
  1091  777  758 1
  1092  778  767 1
  1093  805  783 1
  1094  806  783 1
  1095  807  785 1
  1096  808  787 1
  1097  809  789 1
  1098  810  791 1
  1099  811  792 1
  1100  812  801 1
  1101  836  817 1
  1102  837  817 1
  1103  838  819 1
  1104  839  821 1
  1105  840  823 1
  1106  841  825 1
  1107  842  829 1
  1108  843  832 1
  1109  844  833 1
  1110  868  847 1
  1111  869  847 1
  1112  870  849 1
  1113  871  851 1
  1114  872  853 1
  1115  873  855 1
  1116  874  857 1
  1117  875  864 1
  1118  902  880 1
  1119  903  880 1
  1120  904  882 1
  1121  905  884 1
  1122  906  886 1
  1123  907  888 1
  1124  908  889 1
  1125  909  898 1
  1126  933  914 1
  1127  934  914 1
  1128  935  916 1
  1129  936  918 1
  1130  937  920 1
  1131  938  922 1
  1132  939  926 1
  1133  940  929 1
  1134  941  930 1
  1135  963  944 1
  1136  964  944 1
  1137  965  946 1
  1138  966  948 1
  1139  967  950 1
  1140  968  952 1
  1141  969  956 1
  1142  970  959 1
  1143  971  960 1
  1144  996  974 1
  1145  997  974 1
  1146  998  976 1
  1147  999  978 1
  1148 1000  980 1
  1149 1001  982 1
  1150 1002  983 1
  1151 1003  992 1
  1152 1027 1008 1
  1153 1028 1008 1
  1154 1029 1010 1
  1155 1030 1012 1
  1156 1031 1014 1
  1157 1032 1016 1
  1158 1033 1020 1
  1159 1034 1023 1
  1160 1035 1024 1
  1161 1057 1038 1
  1162 1058 1038 1
  1163 1059 1040 1
  1164 1060 1042 1
  1165 1061 1044 1
  1166 1062 1046 1
  1167 1063 1053 1
  1168 1064 1054 1
  1169 1091 1069 1
  1170 1092 1069 1
  1171 1093 1071 1
  1172 1094 1073 1
  1173 1095 1075 1
  1174 1096 1077 1
  1175 1097 1078 1
  1176 1098 1087 1
  1177 1122 1103 1
  1178 1123 1103 1
  1179 1124 1105 1
  1180 1125 1107 1
  1181 1126 1109 1
  1182 1127 1111 1
  1183 1128 1115 1
  1184 1129 1118 1
  1185 1130 1119 1
  1186 1154 1133 1
  1187 1155 1133 1
  1188 1156 1135 1
  1189 1157 1137 1
  1190 1158 1139 1
  1191 1159 1141 1
  1192 1160 1143 1
  1193 1161 1150 1
  1194 1185 1166 1
  1195 1186 1166 1
  1196 1187 1168 1
  1197 1188 1170 1
  1198 1189 1172 1
  1199 1190 1174 1
  1200 1191 1181 1
  1201 1192 1182 1
  1202   29   12 1
  1203   30   12 1
  1204  124  111 1
  1205  125  111 1
  1206  158  139 1
  1207  159  139 1
  1208  258  239 1
  1209  259  239 1
  1210  292  273 1
  1211  293  273 1
  1212  392  373 1
  1213  393  373 1
  1214  426  407 1
  1215  427  407 1
  1216  550  531 1
  1217  551  531 1
  1218  584  565 1
  1219  585  565 1
  1220  711  692 1
  1221  712  692 1
  1222  745  726 1
  1223  746  726 1
  1224  779  760 1
  1225  780  760 1
  1226  813  794 1
  1227  814  794 1
  1228  910  891 1
  1229  911  891 1
  1230 1004  985 1
  1231 1005  985 1
  1232 1065 1052 1
  1233 1066 1052 1
  1234 1099 1080 1
  1235 1100 1080 1
  1236 1193 1180 1
  1237 1194 1180 1
  1238  518  497 1
  1239  260  235 1
  1240  876  854 1
  1241  845  824 1
  1242  191  169 1
  1243  679  658 1
  1244  972  951 1
  1245  781  756 1
  1246 1195 1173 1
  1247  126  104 1
  1248  912  887 1
  1249  942  921 1
  1250  394  369 1
  1251  713  688 1
  1252 1162 1140 1
  1253   93   71 1
  1254   31    8 1
  1255   62   41 1
  1256 1131 1110 1
  1257  325  303 1
  1258 1036 1015 1
  1259  358  336 1
  1260 1067 1045 1
  1261  552  527 1
  1262  488  467 1
  1263 1101 1076 1
  1264  224  202 1
  1265  616  595 1
  1266  359  344 1
  1267  360  344 1
  1268  225  210 1
  1269  226  210 1
  1270  877  862 1
  1271  878  862 1
  1272  326  311 1
  1273  327  311 1
  1274  192  177 1
  1275  193  177 1
  1276  647  633 1
  1277  648  633 1
  1278 1163 1148 1
  1279 1164 1148 1
  1280   94   79 1
  1281   95   79 1
  1282  294  269 1
  1283  458  437 1
  1284  160  135 1
  1285  649  625 1
  1286  815  790 1
  1287 1006  981 1
  1288  428  403 1
  1289 1196 1171 1
  1290  586  561 1
  1291  747  722 1
  1292   32    2 1
@<TRIPOS>SUBSTRUCTURE
     1   G1        3 RESIDUE           4 A       G     1 ROOT
     2   U2       36 RESIDUE           4 A       U     2
     3   A3       66 RESIDUE           4 A       A     2
     4   C4       99 RESIDUE           4 A       C     2
     5   G5      130 RESIDUE           4 A       G     2
     6   A6      164 RESIDUE           4 A       A     2
     7   A7      197 RESIDUE           4 A       A     2
     8   G8      230 RESIDUE           4 A       G     2
     9   G9      264 RESIDUE           4 A       G     2
    10   A10     298 RESIDUE           4 A       A     2
    11   A11     331 RESIDUE           4 A       A     2
    12   G12     364 RESIDUE           4 A       G     2
    13   G13     398 RESIDUE           4 A       G     2
    14   U14     432 RESIDUE           4 A       U     2
    15   U15     462 RESIDUE           4 A       U     2
    16   U16     492 RESIDUE           4 A       U     2
    17   G17     522 RESIDUE           4 A       G     2
    18   G18     556 RESIDUE           4 A       G     2
    19   U19     590 RESIDUE           4 A       U     2
    20   A20     620 RESIDUE           4 A       A     2
    21   U21     653 RESIDUE           4 A       U     2
    22   G22     683 RESIDUE           4 A       G     2
    23   G23     717 RESIDUE           4 A       G     2
    24   G24     751 RESIDUE           4 A       G     2
    25   G25     785 RESIDUE           4 A       G     2
    26   U26     819 RESIDUE           4 A       U     2
    27   A27     849 RESIDUE           4 A       A     2
    28   G28     882 RESIDUE           4 A       G     2
    29   U29     916 RESIDUE           4 A       U     2
    30   U30     946 RESIDUE           4 A       U     2
    31   G31     976 RESIDUE           4 A       G     2
    32   U32    1010 RESIDUE           4 A       U     2
    33   C33    1040 RESIDUE           4 A       C     2
    34   G34    1071 RESIDUE           4 A       G     2
    35   U35    1105 RESIDUE           4 A       U     2
    36   A36    1135 RESIDUE           4 A       A     2
    37   C37    1168 RESIDUE           4 A       C     1
