@<TRIPOS>MOLECULE
6e8u+ions.pdb
1190 1277 45 0 0
NUCLEIC_ACID
AMBER ff14SB


@<TRIPOS>ATOM
      1 C4'        -8.7840   -9.4110  -44.7040 C.3       1   G1        0.1065
      2 O4'        -9.2840  -10.2650  -45.7600 O.3       1   G1       -0.3548
      3 C3'        -9.6490   -9.7500  -43.5000 C.3       1   G1        0.2022
      4 O3'        -9.6940   -8.6770  -42.5770 O.3       1   G1       -0.5246
      5 C2'       -11.0010  -10.0450  -44.1390 C.3       1   G1        0.0670
      6 O2'       -11.6360   -8.8190  -44.4660 O.3       1   G1       -0.6139
      7 C1'       -10.5840  -10.7200  -45.4440 C.3       1   G1        0.0191
      8 N1        -13.2510  -15.0910  -45.2380 N.am      1   G1       -0.4787
      9 C2        -13.7070  -13.7980  -45.2870 C.2       1   G1        0.7657
     10 N2        -15.0400  -13.6540  -45.2820 N.pl3     1   G1       -0.9672
     11 N3        -12.9220  -12.7360  -45.3360 N.2       1   G1       -0.6323
     12 C4        -11.6150  -13.0680  -45.3350 C.ar      1   G1        0.1222
     13 C5        -11.0530  -14.3280  -45.2850 C.ar      1   G1        0.1744
     14 C6        -11.9100  -15.4590  -45.2330 C.2       1   G1        0.4770
     15 O6        -11.6060  -16.6580  -45.1900 O.2       1   G1       -0.5597
     16 N7         -9.6650  -14.2530  -45.3000 N.ar      1   G1       -0.5709
     17 C8         -9.4140  -12.9750  -45.3540 C.ar      1   G1        0.1374
     18 N9        -10.5480  -12.1990  -45.3700 N.ar      1   G1        0.0492
     19 H4'        -7.7355   -9.6264  -44.4981 H         1   G1        0.1174
     20 H4''       -8.9081   -8.3626  -44.9752 H         1   G1        0.0000
     21 H3'        -9.2673  -10.6454  -43.0095 H         1   G1        0.0615
     22 H2'       -11.6258  -10.6866  -43.5177 H         1   G1        0.0972
     23 H1'       -11.2696  -10.4191  -46.2362 H         1   G1        0.2006
     24 H1        -13.9393  -15.8293  -45.2030 H         1   G1        0.3424
     25 H8         -8.4146  -12.5668  -45.3832 H         1   G1        0.1640
     26 H21       -15.6358  -14.4687  -45.2442 H         1   G1        0.4364
     27 H22       -15.4483  -12.7309  -45.3160 H         1   G1        0.4364
     28 HO2'      -11.9083   -8.3742  -43.6600 H         1   G1        0.4186
     29 P          -9.8100   -8.9510  -40.9950 P.3       2   U2        1.1662
     30 C5'       -12.4130   -8.7450  -40.9860 C.3       2   U2        0.0558
     31 O5'       -11.2670   -9.5570  -40.8100 O.3       2   U2       -0.4989
     32 C4'       -13.6740   -9.5550  -40.8680 C.3       2   U2        0.1065
     33 O4'       -13.7560  -10.4940  -41.9710 O.3       2   U2       -0.3548
     34 C3'       -13.7850  -10.4350  -39.6360 C.3       2   U2        0.2022
     35 O3'       -14.1730   -9.7280  -38.4720 O.3       2   U2       -0.5246
     36 C2'       -14.7890  -11.4860  -40.0800 C.3       2   U2        0.0670
     37 O2'       -16.1020  -10.9500  -40.0560 O.3       2   U2       -0.6139
     38 C1'       -14.3780  -11.6860  -41.5400 C.3       2   U2        0.0674
     39 N1        -13.4180  -12.8030  -41.7010 N.am      2   U2        0.0418
     40 C2        -13.9330  -14.0810  -41.7940 C.2       2   U2        0.4687
     41 O2        -15.1260  -14.3140  -41.7480 O.2       2   U2       -0.5477
     42 N3        -12.9970  -15.0770  -41.9430 N.am      2   U2       -0.3549
     43 C4        -11.6270  -14.9280  -42.0010 C.2       2   U2        0.5952
     44 O4        -10.9100  -15.9240  -42.1400 O.2       2   U2       -0.5761
     45 C5        -11.1720  -13.5760  -41.8980 C.2       2   U2       -0.3635
     46 C6        -12.0610  -12.5850  -41.7530 C.2       2   U2       -0.1126
     47 OP1        -9.8090   -7.6240  -40.3320 O.co2     2   U2       -0.7760
     48 OP2        -8.8110   -9.9750  -40.6000 O.co2     2   U2       -0.7760
     49 H5'       -12.3758   -8.2865  -41.9742 H         2   U2        0.0679
     50 H5''      -12.4175   -7.9622  -40.2275 H         2   U2        0.0679
     51 H4'       -14.5329   -8.8849  -40.9059 H         2   U2        0.1174
     52 H3'       -12.8237  -10.9161  -39.4554 H         2   U2        0.0615
     53 H2'       -14.7081  -12.4049  -39.4993 H         2   U2        0.0972
     54 H1'       -15.2639  -11.8755  -42.1461 H         2   U2        0.1824
     55 H3        -13.3510  -16.0200  -42.0181 H         2   U2        0.3154
     56 H5        -10.1155  -13.3551  -41.9370 H         2   U2        0.1811
     57 H6        -11.6968  -11.5714  -41.6735 H         2   U2        0.2188
     58 HO2'      -16.3774  -10.8175  -39.1460 H         2   U2        0.4186
     59 P         -13.6170  -10.1770  -37.0300 P.3       3   A3        1.1662
     60 C5'       -15.8740  -11.4080  -36.5580 C.3       3   A3        0.0558
     61 O5'       -14.4650  -11.4830  -36.6950 O.3       3   A3       -0.4989
     62 C4'       -16.5040  -12.7740  -36.4510 C.3       3   A3        0.1065
     63 O4'       -16.4070  -13.4750  -37.7180 O.3       3   A3       -0.3548
     64 C3'       -15.8770  -13.7380  -35.4570 C.3       3   A3        0.2022
     65 O3'       -16.2570  -13.4780  -34.1190 O.3       3   A3       -0.5246
     66 C2'       -16.3530  -15.0850  -35.9770 C.3       3   A3        0.0670
     67 O2'       -17.7190  -15.2940  -35.6420 O.3       3   A3       -0.6139
     68 C1'       -16.2630  -14.8620  -37.4850 C.3       3   A3        0.0394
     69 N1        -13.4330  -18.8290  -39.1420 N.ar      3   A3       -0.7615
     70 C2        -14.6860  -18.7570  -38.6790 C.ar      3   A3        0.5875
     71 N3        -15.3630  -17.6840  -38.2680 N.ar      3   A3       -0.6997
     72 C4        -14.6050  -16.5790  -38.3560 C.ar      3   A3        0.3053
     73 C5        -13.3030  -16.4990  -38.8040 C.ar      3   A3        0.0515
     74 C6        -12.6990  -17.7010  -39.2170 C.ar      3   A3        0.7009
     75 N6        -11.4510  -17.7720  -39.6740 N.pl3     3   A3       -0.9019
     76 N7        -12.8380  -15.1920  -38.7530 N.ar      3   A3       -0.6073
     77 C8        -13.8590  -14.5150  -38.2830 C.ar      3   A3        0.2006
     78 N9        -14.9590  -15.2920  -38.0230 N.ar      3   A3       -0.0251
     79 OP1       -13.9900   -9.1260  -36.0510 O.co2     3   A3       -0.7760
     80 OP2       -12.1870  -10.5540  -37.1550 O.co2     3   A3       -0.7760
     81 H5'       -16.1103  -10.8400  -35.6582 H         3   A3        0.0679
     82 H5''      -16.2887  -10.8918  -37.4238 H         3   A3        0.0679
     83 H4'       -17.5578  -12.6525  -36.2004 H         3   A3        0.1174
     84 H3'       -14.7915  -13.6839  -35.5395 H         3   A3        0.0615
     85 H2'       -15.7165  -15.9043  -35.6427 H         3   A3        0.0972
     86 H1'       -17.0648  -15.4046  -37.9858 H         3   A3        0.2007
     87 H2        -15.2213  -19.6938  -38.6317 H         3   A3        0.0473
     88 H8        -13.8355  -13.4481  -38.1168 H         3   A3        0.1553
     89 HO2'      -17.7872  -16.0110  -35.0073 H         3   A3        0.4186
     90 H61       -11.3331  -18.6019  -40.2375 H         3   A3        0.4115
     91 H62       -10.7266  -17.0941  -39.4847 H         3   A3        0.4115
     92 P         -15.2160  -13.7030  -32.9180 P.3       4   C4        1.1662
     93 C5'       -16.3360  -16.0120  -32.4510 C.3       4   C4        0.0558
     94 O5'       -15.1610  -15.2850  -32.7660 O.3       4   C4       -0.4989
     95 C4'       -16.1440  -17.4910  -32.6570 C.3       4   C4        0.1065
     96 O4'       -15.9870  -17.7760  -34.0780 O.3       4   C4       -0.3548
     97 C3'       -14.8950  -18.1050  -32.0490 C.3       4   C4        0.2022
     98 O3'       -14.8750  -18.1890  -30.6210 O.3       4   C4       -0.5246
     99 C2'       -14.7750  -19.3970  -32.8510 C.3       4   C4        0.0670
    100 O2'       -15.8020  -20.3160  -32.5110 O.3       4   C4       -0.6139
    101 C1'       -15.0980  -18.8730  -34.2470 C.3       4   C4        0.0066
    102 N1        -13.8690  -18.4060  -34.9280 N.am      4   C4       -0.0484
    103 C2        -13.0930  -19.3720  -35.5880 C.2       4   C4        0.7538
    104 O2        -13.4970  -20.5460  -35.5930 O.2       4   C4       -0.6252
    105 N3        -11.9490  -19.0000  -36.2050 N.2       4   C4       -0.7584
    106 C4        -11.5600  -17.7230  -36.1750 C.2       4   C4        0.8185
    107 N4        -10.4250  -17.3940  -36.7920 N.pl3     4   C4       -0.9530
    108 C5        -12.3180  -16.7180  -35.5000 C.2       4   C4       -0.5215
    109 C6        -13.4470  -17.1040  -34.8970 C.2       4   C4        0.0053
    110 OP1       -15.8540  -13.1680  -31.6850 O.co2     4   C4       -0.7760
    111 OP2       -13.8630  -13.2380  -33.3190 O.co2     4   C4       -0.7760
    112 H5'       -16.5950  -15.8309  -31.4078 H         4   C4        0.0679
    113 H5''      -17.1511  -15.6659  -33.0865 H         4   C4        0.0679
    114 H4'       -17.0202  -18.0199  -32.2819 H         4   C4        0.1174
    115 H3'       -14.0568  -17.4722  -32.3408 H         4   C4        0.0615
    116 H2'       -13.7802  -19.8382  -32.7887 H         4   C4        0.0972
    117 H1'       -15.5774  -19.6542  -34.8369 H         4   C4        0.2029
    118 H5        -11.9924  -15.6885  -35.4777 H         4   C4        0.1928
    119 H6        -14.0410  -16.3704  -34.3723 H         4   C4        0.1958
    120 H41        -9.8852  -18.1026  -37.2680 H         4   C4        0.4234
    121 H42       -10.1049  -16.4361  -36.7835 H         4   C4        0.4234
    122 HO2'      -15.6366  -20.6716  -31.6348 H         4   C4        0.4186
    123 P         -13.4950  -18.0480  -29.8100 P.3       5   G5        1.1662
    124 C5'       -13.1770  -20.6300  -29.9500 C.3       5   G5        0.0558
    125 O5'       -12.6660  -19.3410  -30.2230 O.3       5   G5       -0.4989
    126 C4'       -12.3440  -21.7030  -30.5980 C.3       5   G5        0.1065
    127 O4'       -12.3530  -21.5610  -32.0470 O.3       5   G5       -0.3548
    128 C3'       -10.8650  -21.7120  -30.2740 C.3       5   G5        0.2022
    129 O3'       -10.5560  -22.1510  -28.9640 O.3       5   G5       -0.5246
    130 C2'       -10.3310  -22.5920  -31.3900 C.3       5   G5        0.0670
    131 O2'       -10.7320  -23.9420  -31.1960 O.3       5   G5       -0.6139
    132 C1'       -11.1220  -22.0350  -32.5680 C.3       5   G5        0.0191
    133 N1         -7.1440  -20.7990  -35.4040 N.am      5   G5       -0.4787
    134 C2         -7.6230  -22.0330  -35.0320 C.2       5   G5        0.7657
    135 N2         -6.9410  -23.1120  -35.4660 N.pl3     5   G5       -0.9672
    136 N3         -8.6910  -22.2110  -34.2820 N.2       5   G5       -0.6323
    137 C4         -9.2530  -21.0390  -33.9230 C.ar      5   G5        0.1222
    138 C5         -8.8620  -19.7630  -34.2370 C.ar      5   G5        0.1744
    139 C6         -7.7100  -19.5790  -35.0430 C.2       5   G5        0.4770
    140 O6         -7.1990  -18.5250  -35.4300 O.2       5   G5       -0.5597
    141 N7         -9.7220  -18.8370  -33.6620 N.ar      5   G5       -0.5709
    142 C8        -10.6050  -19.5600  -33.0240 C.ar      5   G5        0.1374
    143 N9        -10.3850  -20.9090  -33.1610 N.ar      5   G5        0.0492
    144 OP1       -13.8340  -18.1620  -28.3730 O.co2     5   G5       -0.7760
    145 OP2       -12.7040  -16.9020  -30.3130 O.co2     5   G5       -0.7760
    146 H5'       -13.1810  -20.7880  -28.8715 H         5   G5        0.0679
    147 H5''      -14.1985  -20.6959  -30.3245 H         5   G5        0.0679
    148 H4'       -12.7641  -22.6751  -30.3397 H         5   G5        0.1174
    149 H3'       -10.4724  -20.7038  -30.4061 H         5   G5        0.0615
    150 H2'        -9.2540  -22.4906  -31.5238 H         5   G5        0.0972
    151 H1'       -11.2962  -22.8118  -33.3125 H         5   G5        0.2006
    152 H1         -6.3175  -20.7756  -35.9841 H         5   G5        0.3424
    153 H8        -11.4194  -19.1418  -32.4511 H         5   G5        0.1640
    154 H21        -6.1186  -22.9923  -36.0400 H         5   G5        0.4364
    155 H22        -7.2524  -24.0400  -35.2171 H         5   G5        0.4364
    156 HO2'      -10.5466  -24.4480  -31.9905 H         5   G5        0.4186
    157 P          -9.2430  -21.5870  -28.2230 P.3       6   A6        1.1662
    158 C5'        -7.9860  -23.6970  -29.1180 C.3       6   A6        0.0558
    159 O5'        -8.0450  -22.2840  -29.0050 O.3       6   A6       -0.4989
    160 C4'        -6.8000  -24.1380  -29.9270 C.3       6   A6        0.1065
    161 O4'        -6.9260  -23.7190  -31.3120 O.3       6   A6       -0.3548
    162 C3'        -5.4640  -23.5590  -29.5070 C.3       6   A6        0.2022
    163 O3'        -4.9660  -24.1480  -28.3260 O.3       6   A6       -0.5246
    164 C2'        -4.6220  -23.7950  -30.7500 C.3       6   A6        0.0670
    165 O2'        -4.2790  -25.1730  -30.8730 O.3       6   A6       -0.6139
    166 C1'        -5.6390  -23.4610  -31.8430 C.3       6   A6        0.0394
    167 N1         -3.0180  -19.8060  -34.4290 N.ar      6   A6       -0.7615
    168 C2         -2.8110  -21.1250  -34.2790 C.ar      6   A6        0.5875
    169 N3         -3.5280  -22.0160  -33.5990 N.ar      6   A6       -0.6997
    170 C4         -4.5900  -21.4410  -33.0050 C.ar      6   A6        0.3053
    171 C5         -4.9320  -20.0990  -33.0660 C.ar      6   A6        0.0515
    172 C6         -4.1030  -19.2570  -33.8210 C.ar      6   A6        0.7009
    173 N6         -4.3340  -17.9440  -33.9490 N.pl3     6   A6       -0.9019
    174 N7         -6.0800  -19.8600  -32.3350 N.ar      6   A6       -0.6073
    175 C8         -6.4150  -21.0330  -31.8560 C.ar      6   A6        0.2006
    176 N9         -5.5580  -22.0370  -32.2250 N.ar      6   A6       -0.0251
    177 OP1        -9.2770  -22.0830  -26.8240 O.co2     6   A6       -0.7760
    178 OP2        -9.1120  -20.1290  -28.4820 O.co2     6   A6       -0.7760
    179 H5'        -7.9134  -24.1288  -28.1198 H         6   A6        0.0679
    180 H5''       -8.8975  -24.0552  -29.5964 H         6   A6        0.0679
    181 H4'        -6.7372  -25.2257  -29.8937 H         6   A6        0.1174
    182 H3'        -5.5745  -22.4860  -29.3504 H         6   A6        0.0615
    183 H2'        -3.7471  -23.1459  -30.7865 H         6   A6        0.0972
    184 H1'        -5.4651  -24.0898  -32.7162 H         6   A6        0.2007
    185 H2         -1.9393  -21.5176  -34.7814 H         6   A6        0.0473
    186 H8         -7.2816  -21.1929  -31.2316 H         6   A6        0.1553
    187 HO2'       -3.3504  -25.2923  -30.6607 H         6   A6        0.4186
    188 H61        -3.6532  -17.5662  -34.5923 H         6   A6        0.4115
    189 H62        -5.0626  -17.4222  -33.4831 H         6   A6        0.4115
    190 P          -4.0090  -23.3280  -27.3350 P.3       7   A7        1.1662
    191 C5'        -2.1340  -24.9360  -28.1500 C.3       7   A7        0.0558
    192 O5'        -2.5680  -23.6010  -27.9320 O.3       7   A7       -0.4989
    193 C4'        -0.9680  -24.9830  -29.0930 C.3       7   A7        0.1065
    194 O4'        -1.3290  -24.3900  -30.3610 O.3       7   A7       -0.3548
    195 C3'         0.2500  -24.2030  -28.6390 C.3       7   A7        0.2022
    196 O3'         1.0460  -24.9760  -27.7710 O.3       7   A7       -0.5246
    197 C2'         0.9460  -23.8500  -29.9440 C.3       7   A7        0.0670
    198 O2'         1.7470  -24.9380  -30.3990 O.3       7   A7       -0.6139
    199 C1'        -0.2380  -23.6730  -30.8910 C.3       7   A7        0.0394
    200 N1          0.5200  -19.2270  -33.3830 N.ar      7   A7       -0.7615
    201 C2          1.1270  -20.4220  -33.4550 C.ar      7   A7        0.5875
    202 N3          0.8760  -21.5340  -32.7680 N.ar      7   A7       -0.6997
    203 C4         -0.1360  -21.3520  -31.9080 C.ar      7   A7        0.3053
    204 C5         -0.8500  -20.1830  -31.7080 C.ar      7   A7        0.0515
    205 C6         -0.4910  -19.0730  -32.5000 C.ar      7   A7        0.7009
    206 N6         -1.0920  -17.8720  -32.4230 N.pl3     7   A7       -0.9019
    207 N7         -1.8180  -20.3620  -30.7340 N.ar      7   A7       -0.6073
    208 C8         -1.6690  -21.6150  -30.3680 C.ar      7   A7        0.2006
    209 N9         -0.6550  -22.2620  -31.0320 N.ar      7   A7       -0.0251
    210 OP1        -4.1120  -23.9950  -26.0130 O.co2     7   A7       -0.7760
    211 OP2        -4.3000  -21.8630  -27.4210 O.co2     7   A7       -0.7760
    212 H5'        -1.8372  -25.3729  -27.1965 H         7   A7        0.0679
    213 H5''       -2.9565  -25.5158  -28.5688 H         7   A7        0.0679
    214 H4'        -0.6839  -26.0228  -29.2551 H         7   A7        0.1174
    215 H3'        -0.0659  -23.2908  -28.1329 H         7   A7        0.0615
    216 H2'         1.5283  -22.9330  -29.8533 H         7   A7        0.0972
    217 H1'         0.0184  -24.0750  -31.8712 H         7   A7        0.2007
    218 H2          1.9324  -20.4909  -34.1712 H         7   A7        0.0473
    219 H8         -2.2839  -22.0903  -29.6180 H         7   A7        0.1553
    220 H61        -0.5582  -17.1650  -32.9080 H         7   A7        0.4115
    221 H62        -1.9636  -17.6997  -31.9427 H         7   A7        0.4115
    222 HO2'        2.4941  -25.0552  -29.8076 H         7   A7        0.4186
    223 P           1.5190  -24.3810  -26.3680 P.3       8   G8        1.1662
    224 C5'         3.7920  -23.2740  -25.8450 C.3       8   G8        0.0558
    225 O5'         2.7790  -23.5270  -26.7890 O.3       8   G8       -0.4989
    226 C4'         5.1050  -23.1030  -26.5390 C.3       8   G8        0.1065
    227 O4'         4.9760  -22.0390  -27.5350 O.3       8   G8       -0.3548
    228 C3'         6.2370  -22.6810  -25.6220 C.3       8   G8        0.2022
    229 O3'         7.4350  -23.1150  -26.2480 O.3       8   G8       -0.5246
    230 C2'         6.1450  -21.1670  -25.7170 C.3       8   G8        0.0670
    231 O2'         7.2900  -20.4680  -25.2720 O.3       8   G8       -0.6139
    232 C1'         5.8740  -21.0010  -27.2100 C.3       8   G8        0.0191
    233 N1          6.1200  -16.9350  -30.2850 N.am      8   G8       -0.4787
    234 C2          6.8470  -18.1120  -30.3250 C.2       8   G8        0.7657
    235 N2          7.7510  -18.1850  -31.3010 N.pl3     8   G8       -0.9672
    236 N3          6.6730  -19.1200  -29.4750 N.2       8   G8       -0.6323
    237 C4          5.7180  -18.8650  -28.5560 C.ar      8   G8        0.1222
    238 C5          4.9430  -17.7310  -28.4280 C.ar      8   G8        0.1744
    239 C6          5.1390  -16.6650  -29.3520 C.2       8   G8        0.4770
    240 O6          4.5610  -15.5700  -29.4090 O.2       8   G8       -0.5597
    241 N7          4.0580  -17.8490  -27.3570 N.ar      8   G8       -0.5709
    242 C8          4.3090  -19.0290  -26.8490 C.ar      8   G8        0.1374
    243 N9          5.2920  -19.7020  -27.5460 N.ar      8   G8        0.0492
    244 OP1         2.0170  -25.4860  -25.5030 O.co2     8   G8       -0.7760
    245 OP2         0.4740  -23.4540  -25.8640 O.co2     8   G8       -0.7760
    246 H5'         3.5534  -22.3640  -25.2945 H         8   G8        0.0679
    247 H5''        3.8563  -24.1112  -25.1499 H         8   G8        0.0679
    248 H4'         5.3731  -24.0341  -27.0383 H         8   G8        0.1174
    249 H3'         6.1258  -23.0542  -24.6039 H         8   G8        0.0615
    250 H2'         5.2758  -20.8251  -25.1551 H         8   G8        0.0972
    251 H1'         6.8023  -21.1372  -27.7647 H         8   G8        0.2006
    252 H1          6.3193  -16.2306  -30.9809 H         8   G8        0.3424
    253 H8          3.8042  -19.4304  -25.9827 H         8   G8        0.1640
    254 H21         7.8672  -17.4120  -31.9405 H         8   G8        0.4364
    255 H22         8.3200  -19.0134  -31.4013 H         8   G8        0.4364
    256 HO2'        7.2952  -20.4394  -24.3124 H         8   G8        0.4186
    257 P           8.7860  -23.3830  -25.4240 P.3       9   G9        1.1662
    258 C5'        10.0240  -23.1310  -27.7100 C.3       9   G9        0.0558
    259 O5'         9.8760  -22.7080  -26.3590 O.3       9   G9       -0.4989
    260 C4'        10.8680  -22.1750  -28.5180 C.3       9   G9        0.1065
    261 O4'        10.0860  -20.9910  -28.8580 O.3       9   G9       -0.3548
    262 C3'        12.1320  -21.6580  -27.8280 C.3       9   G9        0.2022
    263 O3'        13.1250  -21.4100  -28.8190 O.3       9   G9       -0.5246
    264 C2'        11.6780  -20.3040  -27.3090 C.3       9   G9        0.0670
    265 O2'        12.7250  -19.3930  -27.0590 O.3       9   G9       -0.6139
    266 C1'        10.8100  -19.8440  -28.4670 C.3       9   G9        0.0191
    267 N1          9.3020  -15.1110  -29.4770 N.am      9   G9       -0.4787
    268 C2         10.3110  -15.8440  -30.0450 C.2       9   G9        0.7657
    269 N2         11.0160  -15.2390  -31.0070 N.pl3     9   G9       -0.9672
    270 N3         10.6060  -17.0850  -29.6910 N.2       9   G9       -0.6323
    271 C4          9.8100  -17.5360  -28.7120 C.ar      9   G9        0.1222
    272 C5          8.7830  -16.8880  -28.0770 C.ar      9   G9        0.1744
    273 C6          8.4760  -15.5660  -28.4650 C.2       9   G9        0.4770
    274 O6          7.6040  -14.8320  -28.0080 O.2       9   G9       -0.5597
    275 N7          8.2040  -17.6970  -27.1160 N.ar      9   G9       -0.5709
    276 C8          8.8780  -18.8130  -27.1810 C.ar      9   G9        0.1374
    277 N9          9.8680  -18.7810  -28.1260 N.ar      9   G9        0.0492
    278 OP1         9.0040  -24.8540  -25.4920 O.co2     9   G9       -0.7760
    279 OP2         8.7970  -22.7040  -24.1100 O.co2     9   G9       -0.7760
    280 H5'        10.4981  -24.1124  -27.7204 H         9   G9        0.0679
    281 H5''        9.0379  -23.2082  -28.1680 H         9   G9        0.0679
    282 H4'        11.1600  -22.6717  -29.4433 H         9   G9        0.1174
    283 H3'        12.4816  -22.3193  -27.0352 H         9   G9        0.0615
    284 H2'        11.0704  -20.4310  -26.4130 H         9   G9        0.0972
    285 H1'        11.4452  -19.5168  -29.2901 H         9   G9        0.2006
    286 H1          9.1510  -14.1735  -29.8212 H         9   G9        0.3424
    287 H8          8.6761  -19.6702  -26.5559 H         9   G9        0.1640
    288 H21        10.7919  -14.2921  -31.2778 H         9   G9        0.4364
    289 H22        11.7725  -15.7290  -31.4628 H         9   G9        0.4364
    290 HO2'       13.2558  -19.7087  -26.3240 H         9   G9        0.4186
    291 P          14.1140  -22.5760  -29.3110 P.3      10   A10       1.1662
    292 C5'        13.2660  -22.5470  -31.7990 C.3      10   A10       0.0558
    293 O5'        13.3640  -23.2220  -30.5500 O.3      10   A10      -0.4989
    294 C4'        12.6890  -23.4550  -32.8590 C.3      10   A10       0.1065
    295 O4'        13.5440  -24.6230  -32.9800 O.3      10   A10      -0.3548
    296 C3'        11.2920  -23.9950  -32.5680 C.3      10   A10       0.2022
    297 O3'        10.6470  -24.2770  -33.8030 O.3      10   A10      -0.5246
    298 C2'        11.5910  -25.3170  -31.8800 C.3      10   A10       0.0670
    299 O2'        10.5450  -26.2610  -31.9300 O.3      10   A10      -0.6139
    300 C1'        12.8080  -25.7900  -32.6620 C.3      10   A10       0.0394
    301 N1         15.1200  -30.3600  -32.4380 N.ar     10   A10      -0.7615
    302 C2         14.3360  -29.8040  -33.3670 C.ar     10   A10       0.5875
    303 N3         13.7550  -28.6040  -33.3660 N.ar     10   A10      -0.6997
    304 C4         14.0790  -27.9350  -32.2470 C.ar     10   A10       0.3053
    305 C5         14.8830  -28.3700  -31.2080 C.ar     10   A10       0.0515
    306 C6         15.4300  -29.6550  -31.3270 C.ar     10   A10       0.7009
    307 N6         16.2260  -30.2010  -30.4070 N.pl3    10   A10      -0.9019
    308 N7         14.9890  -27.4020  -30.2180 N.ar     10   A10      -0.6073
    309 C8         14.2540  -26.4160  -30.6720 C.ar     10   A10       0.2006
    310 N9         13.6760  -26.6740  -31.8890 N.ar     10   A10      -0.0251
    311 OP1        14.1570  -23.6350  -28.2720 O.co2    10   A10      -0.7760
    312 OP2        15.3320  -21.8750  -29.7830 O.co2    10   A10      -0.7760
    313 H5'        12.6197  -21.6768  -31.6844 H        10   A10       0.0679
    314 H5''       14.2583  -22.2189  -32.1086 H        10   A10       0.0679
    315 H4'        12.6741  -22.9251  -33.8114 H        10   A10       0.1174
    316 H3'        10.7092  -23.3220  -31.9392 H        10   A10       0.0615
    317 H2'        11.8706  -25.1348  -30.8423 H        10   A10       0.0972
    318 H1'        12.4901  -26.2893  -33.5773 H        10   A10       0.2007
    319 H2         14.1469  -30.4113  -34.2398 H        10   A10       0.0473
    320 H8         14.1164  -25.4875  -30.1379 H        10   A10       0.1553
    321 H61        16.5918  -31.1324  -30.5443 H        10   A10       0.4115
    322 H62        16.4631  -29.6832  -29.5729 H        10   A10       0.4115
    323 HO2'        9.7942  -25.9342  -31.4289 H        10   A10       0.4186
    324 P           9.1340  -23.8200  -34.0650 P.3      11   A11       1.1662
    325 C5'         9.8560  -22.6920  -36.2920 C.3      11   A11       0.0558
    326 O5'         9.3070  -22.5570  -34.9990 O.3      11   A11      -0.4989
    327 C4'         9.8910  -21.3660  -36.9810 C.3      11   A11       0.1065
    328 O4'         8.5390  -20.9090  -37.2640 O.3      11   A11      -0.3548
    329 C3'        10.4780  -20.2260  -36.1720 C.3      11   A11       0.2022
    330 O3'        11.8920  -20.2630  -36.0850 O.3      11   A11      -0.5246
    331 C2'         9.9190  -19.0150  -36.8990 C.3      11   A11       0.0670
    332 O2'        10.5900  -18.8400  -38.1350 O.3      11   A11      -0.6139
    333 C1'         8.4990  -19.4940  -37.1960 C.3      11   A11       0.0394
    334 N1          5.9190  -15.6210  -34.9970 N.ar     11   A11      -0.7615
    335 C2          6.7490  -15.6560  -36.0450 C.ar     11   A11       0.5875
    336 N3          7.3890  -16.7070  -36.5600 N.ar     11   A11      -0.6997
    337 C4          7.0990  -17.8280  -35.8790 C.ar     11   A11       0.3053
    338 C5          6.2690  -17.9480  -34.7820 C.ar     11   A11       0.0515
    339 C6          5.6410  -16.7670  -34.3300 C.ar     11   A11       0.7009
    340 N6          4.8170  -16.7200  -33.2830 N.pl3    11   A11      -0.9019
    341 N7          6.2120  -19.2620  -34.3430 N.ar     11   A11      -0.6073
    342 C8          7.0070  -19.9070  -35.1680 C.ar     11   A11       0.2006
    343 N9          7.5670  -19.1010  -36.1260 N.ar     11   A11      -0.0251
    344 OP1         8.4880  -23.3420  -32.8230 O.co2    11   A11      -0.7760
    345 OP2         8.4940  -24.8900  -34.8700 O.co2    11   A11      -0.7760
    346 H5'        10.8704  -23.0830  -36.2129 H        11   A11       0.0679
    347 H5''        9.2464  -23.3845  -36.8725 H        11   A11       0.0679
    348 H4'        10.4408  -21.4622  -37.9172 H        11   A11       0.1174
    349 H3'        10.0615  -20.2566  -35.1652 H        11   A11       0.0615
    350 H2'         9.9356  -18.1150  -36.2843 H        11   A11       0.0972
    351 H1'         8.1621  -19.0865  -38.1492 H        11   A11       0.2007
    352 H2          6.9237  -14.7112  -36.5382 H        11   A11       0.0473
    353 H8          7.2001  -20.9673  -35.0982 H        11   A11       0.1553
    354 HO2'       10.7697  -17.9071  -38.2728 H        11   A11       0.4186
    355 H61         4.1063  -17.3739  -32.9872 H        11   A11       0.4115
    356 H62         4.9191  -15.9051  -32.6951 H        11   A11       0.4115
    357 P          12.6470  -19.6540  -34.7970 P.3      12   G12       1.1662
    358 C5'        13.1600  -17.5820  -36.3250 C.3      12   G12       0.0558
    359 O5'        12.6680  -18.0880  -35.0950 O.3      12   G12      -0.4989
    360 C4'        12.7190  -16.1570  -36.5370 C.3      12   G12       0.1065
    361 O4'        11.2750  -16.0930  -36.4830 O.3      12   G12      -0.3548
    362 C3'        13.1620  -15.1540  -35.4840 C.3      12   G12       0.2022
    363 O3'        14.4700  -14.6790  -35.7090 O.3      12   G12      -0.5246
    364 C2'        12.1220  -14.0560  -35.6170 C.3      12   G12       0.0670
    365 O2'        12.3960  -13.2670  -36.7700 O.3      12   G12      -0.6139
    366 C1'        10.8740  -14.8610  -35.9220 C.3      12   G12       0.0191
    367 N1          7.3800  -12.7980  -32.9140 N.am     12   G12      -0.4787
    368 C2          8.1550  -12.2240  -33.8990 C.2      12   G12       0.7657
    369 N2          7.9520  -10.9070  -34.1310 N.pl3    12   G12      -0.9672
    370 N3          9.0580  -12.8860  -34.6060 N.2      12   G12      -0.6323
    371 C4          9.1340  -14.1790  -34.2310 C.ar     12   G12       0.1222
    372 C5          8.4240  -14.8530  -33.2560 C.ar     12   G12       0.1744
    373 C6          7.4520  -14.1320  -32.5120 C.2      12   G12       0.4770
    374 O6          6.7100  -14.5290  -31.6090 O.2      12   G12      -0.5597
    375 N7          8.8100  -16.1880  -33.1990 N.ar     12   G12      -0.5709
    376 C8          9.7310  -16.3030  -34.1240 C.ar     12   G12       0.1374
    377 N9          9.9890  -15.1090  -34.7700 N.ar     12   G12       0.0492
    378 OP1        14.0500  -20.1280  -34.8190 O.co2    12   G12      -0.7760
    379 OP2        11.8290  -19.8100  -33.5640 O.co2    12   G12      -0.7760
    380 H5'        14.2493  -17.6204  -36.3160 H        12   G12       0.0679
    381 H5''       12.7859  -18.1988  -37.1421 H        12   G12       0.0679
    382 H4'        13.0561  -15.8198  -37.5172 H        12   G12       0.1174
    383 H3'        13.0981  -15.6053  -34.4939 H        12   G12       0.0615
    384 H2'        12.0249  -13.4572  -34.7114 H        12   G12       0.0972
    385 H1'        10.3011  -14.3198  -36.6750 H        12   G12       0.2006
    386 H1          6.7076  -12.2066  -32.4469 H        12   G12       0.3424
    387 H8         10.2338  -17.2302  -34.3562 H        12   G12       0.1640
    388 H21         7.2632  -10.3999  -33.5939 H        12   G12       0.4364
    389 H22         8.4892  -10.4307  -34.8414 H        12   G12       0.4364
    390 HO2'       12.5882  -12.3652  -36.5029 H        12   G12       0.4186
    391 P          15.3170  -14.0250  -34.5150 P.3      13   G13       1.1662
    392 C5'        14.8770  -11.5940  -35.3980 C.3      13   G13       0.0558
    393 O5'        14.7140  -12.5610  -34.3750 O.3      13   G13      -0.4989
    394 C4'        14.2100  -10.3100  -34.9960 C.3      13   G13       0.1065
    395 O4'        12.7820  -10.5300  -34.8400 O.3      13   G13      -0.3548
    396 C3'        14.6490   -9.7640  -33.6510 C.3      13   G13       0.2022
    397 O3'        15.8460   -9.0120  -33.7540 O.3      13   G13      -0.5246
    398 C2'        13.4520   -8.9280  -33.2200 C.3      13   G13       0.0670
    399 O2'        13.4690   -7.6800  -33.8970 O.3      13   G13      -0.6139
    400 C1'        12.2880   -9.7350  -33.7880 C.3      13   G13       0.0191
    401 N1          8.4960  -10.1840  -30.4190 N.am     13   G13      -0.4787
    402 C2          8.9320   -9.0690  -31.1030 C.2      13   G13       0.7657
    403 N2          8.2810   -7.9110  -30.8930 N.pl3    13   G13      -0.9672
    404 N3          9.9440   -9.0770  -31.9470 N.2      13   G13      -0.6323
    405 C4         10.5030  -10.2990  -32.0620 C.ar     13   G13       0.1222
    406 C5         10.1450  -11.4660  -31.4260 C.ar     13   G13       0.1744
    407 C6          9.0570  -11.4610  -30.5260 C.2      13   G13       0.4770
    408 O6          8.5920  -12.4130  -29.8770 O.2      13   G13      -0.5597
    409 N7         10.9810  -12.5020  -31.8100 N.ar     13   G13      -0.5709
    410 C8         11.8110  -11.9670  -32.6610 C.ar     13   G13       0.1374
    411 N9         11.5920  -10.6190  -32.8360 N.ar     13   G13       0.0492
    412 OP1        16.7140  -13.9140  -35.0200 O.co2    13   G13      -0.7760
    413 OP2        15.0200  -14.7370  -33.2500 O.co2    13   G13      -0.7760
    414 H5'        14.4261  -11.9627  -36.3193 H        13   G13       0.0679
    415 H5''       15.9397  -11.4147  -35.5611 H        13   G13       0.0679
    416 H4'        14.3790   -9.5570  -35.7658 H        13   G13       0.1174
    417 H3'        14.7924  -10.5869  -32.9507 H        13   G13       0.0615
    418 H2'        13.3912   -8.8142  -32.1377 H        13   G13       0.0972
    419 H1'        11.5592   -9.0376  -34.2010 H        13   G13       0.2006
    420 H1          7.7117  -10.0700  -29.7929 H        13   G13       0.3424
    421 H8         12.5850  -12.5201  -33.1723 H        13   G13       0.1640
    422 H21         7.5016   -7.8790  -30.2514 H        13   G13       0.4364
    423 H22         8.5715   -7.0734  -31.3769 H        13   G13       0.4364
    424 HO2'       13.3403   -6.9701  -33.2637 H        13   G13       0.4186
    425 P          16.9630   -9.1160  -32.6140 P.3      14   U14       1.1662
    426 C5'        15.8660   -7.3990  -30.9820 C.3      14   U14       0.0558
    427 O5'        16.1900   -8.7370  -31.2930 O.3      14   U14      -0.4989
    428 C4'        16.2310   -7.1400  -29.5550 C.3      14   U14       0.1065
    429 O4'        15.3420   -7.9130  -28.6990 O.3      14   U14      -0.3548
    430 C3'        17.6630   -7.5580  -29.1860 C.3      14   U14       0.2022
    431 O3'        18.3910   -6.4730  -28.6190 O.3      14   U14      -0.5246
    432 C2'        17.4750   -8.6700  -28.1450 C.3      14   U14       0.0670
    433 O2'        18.4310   -8.6570  -27.1070 O.3      14   U14      -0.6139
    434 C1'        16.0780   -8.3910  -27.6050 C.3      14   U14       0.0674
    435 N1         15.4030   -9.5730  -27.0490 N.am     14   U14       0.0418
    436 C2         14.3210   -9.3300  -26.2330 C.2      14   U14       0.4687
    437 O2         13.8960   -8.2060  -26.0020 O.2      14   U14      -0.5477
    438 N3         13.7050  -10.4350  -25.7200 N.am     14   U14      -0.3549
    439 C4         14.0980  -11.7480  -25.9200 C.2      14   U14       0.5952
    440 O4         13.4470  -12.6420  -25.3780 O.2      14   U14      -0.5761
    441 C5         15.2360  -11.9110  -26.7630 C.2      14   U14      -0.3635
    442 C6         15.8540  -10.8530  -27.2930 C.2      14   U14      -0.1126
    443 OP1        17.9900   -8.0930  -32.9420 O.co2    14   U14      -0.7760
    444 OP2        17.3600  -10.5190  -32.3970 O.co2    14   U14      -0.7760
    445 H5'        16.4244   -6.7253  -31.6320 H        14   U14       0.0679
    446 H5''       14.7968   -7.2394  -31.1212 H        14   U14       0.0679
    447 H4'        16.1015   -6.0793  -29.3398 H        14   U14       0.1174
    448 H3'        18.1821   -7.9446  -30.0630 H        14   U14       0.0615
    449 H2'        17.4877   -9.6405  -28.6410 H        14   U14       0.0972
    450 H1'        16.1345   -7.6152  -26.8414 H        14   U14       0.1824
    451 H3         12.8902  -10.2814  -25.1433 H        14   U14       0.3154
    452 H5         15.6032  -12.9041  -26.9758 H        14   U14       0.1811
    453 H6         16.7194  -11.0017  -27.9218 H        14   U14       0.2188
    454 HO2'       19.3014   -8.8348  -27.4708 H        14   U14       0.4186
    455 P          19.0310   -5.3660  -29.5960 P.3      15   U15       1.1662
    456 C5'        17.4780   -3.3940  -30.4090 C.3      15   U15       0.0558
    457 O5'        18.0490   -4.1520  -29.3580 O.3      15   U15      -0.4989
    458 C4'        16.6950   -2.2580  -29.8040 C.3      15   U15       0.1065
    459 O4'        17.5800   -1.3460  -29.1110 O.3      15   U15      -0.3548
    460 C3'        15.9130   -1.3670  -30.7400 C.3      15   U15       0.2022
    461 O3'        14.7000   -1.9820  -31.1020 O.3      15   U15      -0.5246
    462 C2'        15.7090   -0.1040  -29.9030 C.3      15   U15       0.0670
    463 O2'        14.6110   -0.2710  -29.0130 O.3      15   U15      -0.6139
    464 C1'        16.9990   -0.0610  -29.0740 C.3      15   U15       0.0674
    465 N1         17.9850    0.9380  -29.5510 N.am     15   U15       0.0418
    466 C2         17.7880    2.2510  -29.1590 C.2      15   U15       0.4687
    467 O2         16.8410    2.5960  -28.4710 O.2      15   U15      -0.5477
    468 N3         18.7310    3.1440  -29.6060 N.am     15   U15      -0.3549
    469 C4         19.8360    2.8620  -30.3850 C.2      15   U15       0.5952
    470 O4         20.5950    3.7780  -30.7080 O.2      15   U15      -0.5761
    471 C5         19.9790    1.4820  -30.7410 C.2      15   U15      -0.3635
    472 C6         19.0740    0.5890  -30.3180 C.2      15   U15      -0.1126
    473 OP1        18.8990   -5.8270  -30.9960 O.co2    15   U15      -0.7760
    474 OP2        20.3860   -4.9770  -29.1210 O.co2    15   U15      -0.7760
    475 H5'        18.2672   -2.9979  -31.0481 H        15   U15       0.0679
    476 H5''       16.8124   -4.0258  -30.9971 H        15   U15       0.0679
    477 H4'        16.0006   -2.6757  -29.0750 H        15   U15       0.1174
    478 H3'        16.5027   -1.1411  -31.6284 H        15   U15       0.0615
    479 H2'        15.5962    0.7831  -30.5262 H        15   U15       0.0972
    480 H1'        16.7400    0.1730  -28.0414 H        15   U15       0.1824
    481 H3         18.6028    4.1089  -29.3365 H        15   U15       0.3154
    482 H5         20.8131    1.1624  -31.3481 H        15   U15       0.1811
    483 H6         19.2042   -0.4480  -30.5901 H        15   U15       0.2188
    484 HO2'       13.7884   -0.1461  -29.4919 H        15   U15       0.4186
    485 P          13.8340   -1.4400  -32.3280 P.3      16   U16       1.1662
    486 C5'        13.0960   -3.6540  -33.5290 C.3      16   U16       0.0558
    487 O5'        12.8090   -2.6340  -32.5910 O.3      16   U16      -0.4989
    488 C4'        12.2350   -4.8690  -33.2920 C.3      16   U16       0.1065
    489 O4'        12.6980   -5.5530  -32.1050 O.3      16   U16      -0.3548
    490 C3'        10.7470   -4.6110  -33.0950 C.3      16   U16       0.2022
    491 O3'        10.0230   -5.6280  -33.7770 O.3      16   U16      -0.5246
    492 C2'        10.5470   -4.7360  -31.5770 C.3      16   U16       0.0670
    493 O2'         9.2590   -5.1940  -31.1860 O.3      16   U16      -0.6139
    494 C1'        11.6370   -5.7300  -31.1800 C.3      16   U16       0.0674
    495 N1         12.2360   -5.4750  -29.8650 N.am     16   U16       0.0418
    496 C2         12.3880   -6.5130  -28.9670 C.2      16   U16       0.4687
    497 O2         11.9720   -7.6370  -29.1870 O.2      16   U16      -0.5477
    498 N3         13.0120   -6.1840  -27.7900 N.am     16   U16      -0.3549
    499 C4         13.5100   -4.9470  -27.4410 C.2      16   U16       0.5952
    500 O4         14.0450   -4.7870  -26.3490 O.2      16   U16      -0.5761
    501 C5         13.3300   -3.9290  -28.4270 C.2      16   U16      -0.3635
    502 C6         12.7410   -4.2240  -29.5840 C.2      16   U16      -0.1126
    503 OP1        14.7500   -1.3300  -33.4930 O.co2    16   U16      -0.7760
    504 OP2        13.0440   -0.2660  -31.8770 O.co2    16   U16      -0.7760
    505 H5'        14.1444   -3.9375  -33.4365 H        16   U16       0.0679
    506 H5''       12.9143   -3.2768  -34.5354 H        16   U16       0.0679
    507 H4'        12.3544   -5.5419  -34.1412 H        16   U16       0.1174
    508 H3'        10.4668   -3.6195  -33.4507 H        16   U16       0.0615
    509 H2'        10.7467   -3.7736  -31.1058 H        16   U16       0.0972
    510 H1'        11.2562   -6.7500  -31.2312 H        16   U16       0.1824
    511 H3         13.1171   -6.9235  -27.1102 H        16   U16       0.3154
    512 H5         13.6709   -2.9225  -28.2343 H        16   U16       0.1811
    513 H6         12.6555   -3.4509  -30.3333 H        16   U16       0.2188
    514 HO2'        8.6057   -4.5183  -31.3813 H        16   U16       0.4186
    515 P           8.9770   -5.2040  -34.9070 P.3      17   G17       1.1662
    516 C5'         6.8140   -3.7260  -34.6390 C.3      17   G17       0.0558
    517 O5'         7.8510   -4.4840  -34.0460 O.3      17   G17      -0.4989
    518 C4'         5.5390   -3.9410  -33.8740 C.3      17   G17       0.1065
    519 O4'         4.9750   -5.2220  -34.2220 O.3      17   G17      -0.3548
    520 C3'         5.6900   -4.0120  -32.3670 C.3      17   G17       0.2022
    521 O3'         5.7560   -2.7210  -31.8000 O.3      17   G17      -0.5246
    522 C2'         4.4550   -4.7930  -31.9460 C.3      17   G17       0.0670
    523 O2'         3.3220   -3.9310  -31.9500 O.3      17   G17      -0.6139
    524 C1'         4.3020   -5.7660  -33.1130 C.3      17   G17       0.0191
    525 N1          3.6730  -10.2090  -30.6700 N.am     17   G17      -0.4787
    526 C2          2.9410   -9.0450  -30.5770 C.2      17   G17       0.7657
    527 N2          1.9010   -9.0560  -29.7330 N.pl3    17   G17      -0.9672
    528 N3          3.2300   -7.9520  -31.2670 N.2      17   G17      -0.6323
    529 C4          4.2990   -8.0920  -32.0670 C.ar     17   G17       0.1222
    530 C5          5.0970   -9.1990  -32.2300 C.ar     17   G17       0.1744
    531 C6          4.7820  -10.3690  -31.4900 C.2      17   G17       0.4770
    532 O6          5.3700  -11.4570  -31.5170 O.2      17   G17      -0.5597
    533 N7          6.1000   -8.9530  -33.1460 N.ar     17   G17      -0.5709
    534 C8          5.9140   -7.7050  -33.5210 C.ar     17   G17       0.1374
    535 N9          4.8420   -7.1230  -32.8790 N.ar     17   G17       0.0492
    536 OP1         8.4140   -6.4290  -35.5270 O.co2    17   G17      -0.7760
    537 OP2         9.5680   -4.1490  -35.7670 O.co2    17   G17      -0.7760
    538 H5'         7.0778   -2.6687  -34.6162 H        17   G17       0.0679
    539 H5''        6.6762   -4.0442  -35.6724 H        17   G17       0.0679
    540 H4'         4.8292   -3.1538  -34.1282 H        17   G17       0.1174
    541 H3'         6.5880   -4.5744  -32.1115 H        17   G17       0.0615
    542 H2'         4.5885   -5.3029  -30.9919 H        17   G17       0.0972
    543 H1'         3.2431   -5.8512  -33.3572 H        17   G17       0.2006
    544 H1          3.3844  -10.9955  -30.1059 H        17   G17       0.3424
    545 H8          6.5300   -7.1960  -34.2476 H        17   G17       0.1640
    546 H21         1.6864   -9.8910  -29.2068 H        17   G17       0.4364
    547 H22         1.3313   -8.2293  -29.6227 H        17   G17       0.4364
    548 HO2'        2.5193   -4.4566  -31.9184 H        17   G17       0.4186
    549 P           6.4660   -2.4690  -30.3940 P.3      18   G18       1.1662
    550 C5'         4.1550   -2.4100  -29.1440 C.3      18   G18       0.0558
    551 O5'         5.4290   -3.0110  -29.3310 O.3      18   G18      -0.4989
    552 C4'         3.4940   -2.9860  -27.9230 C.3      18   G18       0.1065
    553 O4'         3.2980   -4.4170  -28.1530 O.3      18   G18      -0.3548
    554 C3'         4.3310   -2.8580  -26.6480 C.3      18   G18       0.2022
    555 O3'         3.5050   -2.6610  -25.5110 O.3      18   G18      -0.5246
    556 C2'         5.0180   -4.2150  -26.5490 C.3      18   G18       0.0670
    557 O2'         5.3930   -4.5910  -25.2370 O.3      18   G18      -0.6139
    558 C1'         3.9770   -5.1570  -27.1580 C.3      18   G18       0.0191
    559 N1          4.4290  -10.2510  -27.2730 N.am     18   G18      -0.4787
    560 C2          3.5370   -9.4870  -26.5570 C.2      18   G18       0.7657
    561 N2          2.6800  -10.1350  -25.7600 N.pl3    18   G18      -0.9672
    562 N3          3.4840   -8.1630  -26.6090 N.2      18   G18      -0.6323
    563 C4          4.4100   -7.6600  -27.4600 C.ar     18   G18       0.1222
    564 C5          5.3430   -8.3360  -28.2220 C.ar     18   G18       0.1744
    565 C6          5.3940   -9.7470  -28.1440 C.2      18   G18       0.4770
    566 O6          6.1690  -10.5060  -28.7420 O.2      18   G18      -0.5597
    567 N7          6.1430   -7.4670  -28.9610 N.ar     18   G18      -0.5709
    568 C8          5.6860   -6.2810  -28.6480 C.ar     18   G18       0.1374
    569 N9          4.6310   -6.3220  -27.7620 N.ar     18   G18       0.0492
    570 OP1         6.6020   -0.9970  -30.2500 O.co2    18   G18      -0.7760
    571 OP2         7.6580   -3.3430  -30.2580 O.co2    18   G18      -0.7760
    572 H5'         3.5323   -2.6032  -30.0175 H        18   G18       0.0679
    573 H5''        4.2769   -1.3344  -29.0167 H        18   G18       0.0679
    574 H4'         2.5269   -2.5062  -27.7727 H        18   G18       0.1174
    575 H3'         5.0634   -2.0562  -26.7414 H        18   G18       0.0615
    576 H2'         5.9047   -4.2100  -27.1829 H        18   G18       0.0972
    577 H1'         3.2741   -5.4811  -26.3905 H        18   G18       0.2006
    578 H1          4.3813  -11.2534  -27.1591 H        18   G18       0.3424
    579 H8          6.0944   -5.3630  -29.0440 H        18   G18       0.1640
    580 H21         2.7053  -11.1432  -25.7048 H        18   G18       0.4364
    581 H22         2.0077   -9.6161  -25.2134 H        18   G18       0.4364
    582 HO2'        4.6101   -4.6512  -24.6847 H        18   G18       0.4186
    583 P           3.2150   -1.1670  -24.9600 P.3      19   U19       1.1662
    584 C5'         5.2140   -1.4730  -23.2900 C.3      19   U19       0.0558
    585 O5'         3.8350   -1.1780  -23.5010 O.3      19   U19      -0.4989
    586 C4'         5.4580   -1.8330  -21.8510 C.3      19   U19       0.1065
    587 O4'         5.2980   -0.6600  -21.0210 O.3      19   U19      -0.3548
    588 C3'         4.4750   -2.8320  -21.2740 C.3      19   U19       0.2022
    589 O3'         4.8360   -4.1600  -21.5780 O.3      19   U19      -0.5246
    590 C2'         4.4850   -2.5230  -19.7850 C.3      19   U19       0.0670
    591 O2'         5.5850   -3.1600  -19.1550 O.3      19   U19      -0.6139
    592 C1'         4.7340   -1.0150  -19.7770 C.3      19   U19       0.0674
    593 N1          3.4950   -0.2410  -19.5650 N.am     19   U19       0.0418
    594 C2          3.2120    0.1400  -18.2630 C.2      19   U19       0.4687
    595 O2          3.9560   -0.1290  -17.3370 O.2      19   U19      -0.5477
    596 N3          2.0550    0.8520  -18.0940 N.am     19   U19      -0.3549
    597 C4          1.1600    1.2070  -19.0810 C.2      19   U19       0.5952
    598 O4          0.1540    1.8590  -18.7920 O.2      19   U19      -0.5761
    599 C5          1.5140    0.7590  -20.3940 C.2      19   U19      -0.3635
    600 C6          2.6410    0.0700  -20.5950 C.2      19   U19      -0.1126
    601 OP1         1.7560   -1.0270  -24.7790 O.co2    19   U19      -0.7760
    602 OP2         3.9770   -0.1850  -25.7700 O.co2    19   U19      -0.7760
    603 H5'         5.5030   -2.3113  -23.9239 H        19   U19       0.0679
    604 H5''        5.8134   -0.6006  -23.5502 H        19   U19       0.0679
    605 H4'         6.4717   -2.2183  -21.7413 H        19   U19       0.1174
    606 H3'         3.4818   -2.6300  -21.6751 H        19   U19       0.0615
    607 H2'         3.5387   -2.7814  -19.3097 H        19   U19       0.0972
    608 H1'         5.4427   -0.7759  -18.9841 H        19   U19       0.1824
    609 H3          1.8352    1.1464  -17.1532 H        19   U19       0.3154
    610 H5          0.8650    0.9797  -21.2285 H        19   U19       0.1811
    611 H6          2.8876   -0.2517  -21.5961 H        19   U19       0.2188
    612 HO2'        5.4458   -4.1098  -19.1508 H        19   U19       0.4186
    613 P           3.7110   -5.2260  -21.9470 P.3      20   A20       1.1662
    614 C5'         4.7780   -6.8550  -20.1860 C.3      20   A20       0.0558
    615 O5'         4.3940   -6.6110  -21.5390 O.3      20   A20      -0.4989
    616 C4'         4.0900   -8.0760  -19.6120 C.3      20   A20       0.1065
    617 O4'         2.6500   -7.8610  -19.5240 O.3      20   A20      -0.3548
    618 C3'         4.2630   -9.3660  -20.4200 C.3      20   A20       0.2022
    619 O3'         4.2340  -10.4760  -19.5270 O.3      20   A20      -0.5246
    620 C2'         2.9670   -9.4270  -21.2070 C.3      20   A20       0.0670
    621 O2'         2.6610  -10.7190  -21.6900 O.3      20   A20      -0.6139
    622 C1'         1.9910   -8.9520  -20.1410 C.3      20   A20       0.0394
    623 N1         -3.0210   -9.5000  -19.4460 N.ar     20   A20      -0.7615
    624 C2         -1.9630  -10.0440  -18.8370 C.ar     20   A20       0.5875
    625 N3         -0.6680   -9.8460  -19.0720 N.ar     20   A20      -0.6997
    626 C4         -0.5160   -8.9740  -20.0840 C.ar     20   A20       0.3053
    627 C5         -1.5020   -8.3350  -20.8040 C.ar     20   A20       0.0515
    628 C6         -2.8290   -8.6260  -20.4590 C.ar     20   A20       0.7009
    629 N6         -3.8780   -8.0820  -21.0750 N.pl3    20   A20      -0.9019
    630 N7         -0.9580   -7.5110  -21.7700 N.ar     20   A20      -0.6073
    631 C8          0.3420   -7.6580  -21.6180 C.ar     20   A20       0.2006
    632 N9          0.6730   -8.5330  -20.6160 N.ar     20   A20      -0.0251
    633 OP1         3.5470   -5.2630  -23.4080 O.co2    20   A20      -0.7760
    634 OP2         2.5250   -4.9920  -21.1050 O.co2    20   A20      -0.7760
    635 H5'         4.5134   -5.9863  -19.5832 H        20   A20       0.0679
    636 H5''        5.8572   -7.0020  -20.1436 H        20   A20       0.0679
    637 H4'         4.4743   -8.2461  -18.6063 H        20   A20       0.1174
    638 H3'         5.1477   -9.3545  -21.0566 H        20   A20       0.0615
    639 H2'         2.9959   -8.7156  -22.0323 H        20   A20       0.0972
    640 H1'         1.8624   -9.7456  -19.4049 H        20   A20       0.2007
    641 H2         -2.1904  -10.7411  -18.0441 H        20   A20       0.0473
    642 H8          1.0734   -7.1413  -22.2218 H        20   A20       0.1553
    643 HO2'        1.8923  -10.6731  -22.2633 H        20   A20       0.4186
    644 H61        -3.6427   -7.8326  -22.0250 H        20   A20       0.4115
    645 H62        -4.7832   -7.9388  -20.6505 H        20   A20       0.4115
    646 P           5.5510  -11.3250  -19.2350 P.3      21   U21       1.1662
    647 C5'         5.2010  -12.9920  -21.2150 C.3      21   U21       0.0558
    648 O5'         5.9640  -11.9280  -20.6400 O.3      21   U21      -0.4989
    649 C4'         6.0810  -14.1540  -21.6000 C.3      21   U21       0.1065
    650 O4'         6.9840  -13.7410  -22.6640 O.3      21   U21      -0.3548
    651 C3'         6.9700  -14.6860  -20.4750 C.3      21   U21       0.2022
    652 O3'         7.2180  -16.0730  -20.6790 O.3      21   U21      -0.5246
    653 C2'         8.2770  -13.9590  -20.7210 C.3      21   U21       0.0670
    654 O2'         9.3930  -14.6050  -20.1550 O.3      21   U21      -0.6139
    655 C1'         8.3220  -13.9460  -22.2470 C.3      21   U21       0.0674
    656 N1          9.1430  -12.8610  -22.7850 N.am     21   U21       0.0418
    657 C2         10.2550  -13.1770  -23.5530 C.2      21   U21       0.4687
    658 O2         10.5710  -14.3240  -23.8250 O.2      21   U21      -0.5477
    659 N3         10.9900  -12.1120  -24.0020 N.am     21   U21      -0.3549
    660 C4         10.6730  -10.7850  -23.7440 C.2      21   U21       0.5952
    661 O4         11.4010   -9.9060  -24.1900 O.2      21   U21      -0.5761
    662 C5          9.5300  -10.5500  -22.9310 C.2      21   U21      -0.3635
    663 C6          8.7890  -11.5650  -22.4890 C.2      21   U21      -0.1126
    664 OP1         5.1310  -12.4070  -18.3140 O.co2    21   U21      -0.7760
    665 OP2         6.6120  -10.3940  -18.7940 O.co2    21   U21      -0.7760
    666 H5'         4.4628  -13.3317  -20.4885 H        21   U21       0.0679
    667 H5''        4.6862  -12.6239  -22.1025 H        21   U21       0.0679
    668 H4'         5.4526  -14.9658  -21.9664 H        21   U21       0.1174
    669 H3'         6.5587  -14.4784  -19.4871 H        21   U21       0.0615
    670 H2'         8.2095  -12.9385  -20.3440 H        21   U21       0.0972
    671 H1'         8.6842  -14.9052  -22.6168 H        21   U21       0.1824
    672 H3         11.8133  -12.3037  -24.5548 H        21   U21       0.3154
    673 H5          9.2598   -9.5377  -22.6691 H        21   U21       0.1811
    674 H6          7.9075  -11.3698  -21.8964 H        21   U21       0.2188
    675 HO2'        9.3214  -14.5886  -19.1978 H        21   U21       0.4186
    676 P           6.6830  -17.1530  -19.6200 P.3      22   G22       1.1662
    677 C5'         4.5100  -17.6060  -20.9310 C.3      22   G22       0.0558
    678 O5'         5.1170  -17.0740  -19.7720 O.3      22   G22      -0.4989
    679 C4'         3.0910  -17.1380  -21.0780 C.3      22   G22       0.1065
    680 O4'         3.0850  -15.6950  -21.2420 O.3      22   G22      -0.3548
    681 C3'         2.3760  -17.6630  -22.3070 C.3      22   G22       0.2022
    682 O3'         1.8080  -18.9480  -22.0880 O.3      22   G22      -0.5246
    683 C2'         1.3410  -16.5790  -22.5870 C.3      22   G22       0.0670
    684 O2'         0.2260  -16.7300  -21.7300 O.3      22   G22      -0.6139
    685 C1'         2.0830  -15.3170  -22.1540 C.3      22   G22       0.0191
    686 N1          5.7120  -14.9600  -25.8490 N.am     22   G22      -0.4787
    687 C2          5.5040  -15.9640  -24.9320 C.2      22   G22       0.7657
    688 N2          6.3700  -16.9930  -24.9880 N.pl3    22   G22      -0.9672
    689 N3          4.5530  -15.9750  -24.0200 N.2      22   G22      -0.6323
    690 C4          3.7760  -14.8780  -24.0740 C.ar     22   G22       0.1222
    691 C5          3.8960  -13.8230  -24.9500 C.ar     22   G22       0.1744
    692 C6          4.9190  -13.8220  -25.9280 C.2      22   G22       0.4770
    693 O6          5.1830  -12.9660  -26.7680 O.2      22   G22      -0.5597
    694 N7          2.9170  -12.8780  -24.7080 N.ar     22   G22      -0.5709
    695 C8          2.2330  -13.3520  -23.7110 C.ar     22   G22       0.1374
    696 N9          2.6930  -14.5760  -23.2780 N.ar     22   G22       0.0492
    697 OP1         6.9850  -16.7070  -18.2400 O.co2    22   G22      -0.7760
    698 OP2         7.1520  -18.4800  -20.1070 O.co2    22   G22      -0.7760
    699 H5'         5.0789  -17.2890  -21.8050 H        22   G22       0.0679
    700 H5''        4.5225  -18.6944  -20.8727 H        22   G22       0.0679
    701 H4'         2.5251  -17.4054  -20.1856 H        22   G22       0.1174
    702 H3'         3.0784  -17.7154  -23.1389 H        22   G22       0.0615
    703 H2'         1.0519  -16.5469  -23.6375 H        22   G22       0.0972
    704 H1'         1.3799  -14.6582  -21.6444 H        22   G22       0.2006
    705 H1          6.4802  -15.0549  -26.4978 H        22   G22       0.3424
    706 H8          1.3916  -12.8401  -23.2678 H        22   G22       0.1640
    707 H21         7.1080  -16.9950  -25.6776 H        22   G22       0.4364
    708 H22         6.2818  -17.7631  -24.3404 H        22   G22       0.4364
    709 HO2'       -0.5728  -16.8157  -22.2555 H        22   G22       0.4186
    710 P           2.4690  -20.2580  -22.7550 P.3      23   G23       1.1662
    711 C5'         0.5280  -20.5020  -24.4850 C.3      23   G23       0.0558
    712 O5'         1.9090  -20.2400  -24.2380 O.3      23   G23      -0.4989
    713 C4'        -0.2340  -19.2400  -24.8230 C.3      23   G23       0.1065
    714 O4'         0.3890  -18.6030  -25.9610 O.3      23   G23      -0.3548
    715 C3'        -1.6730  -19.4570  -25.2410 C.3      23   G23       0.2022
    716 O3'        -2.3540  -18.2040  -25.0780 O.3      23   G23      -0.5246
    717 C2'        -1.5060  -19.7490  -26.7270 C.3      23   G23       0.0670
    718 O2'        -2.6770  -19.6000  -27.4900 O.3      23   G23      -0.6139
    719 C1'        -0.4610  -18.7010  -27.0950 C.3      23   G23       0.0191
    720 N1          1.9240  -16.7920  -31.1450 N.am     23   G23      -0.4787
    721 C2          0.9830  -16.2210  -30.3290 C.2      23   G23       0.7657
    722 N2          0.6610  -14.9530  -30.6230 N.pl3    23   G23      -0.9672
    723 N3          0.4070  -16.8370  -29.3000 N.2      23   G23      -0.6323
    724 C4          0.8520  -18.1080  -29.1530 C.ar     23   G23       0.1222
    725 C5          1.7810  -18.7710  -29.9180 C.ar     23   G23       0.1744
    726 C6          2.3850  -18.1000  -31.0120 C.2      23   G23       0.4770
    727 O6          3.2400  -18.5380  -31.7960 O.2      23   G23      -0.5597
    728 N7          1.9700  -20.0650  -29.4440 N.ar     23   G23      -0.5709
    729 C8          1.1740  -20.1620  -28.4160 C.ar     23   G23       0.1374
    730 N9          0.4310  -19.0110  -28.2080 N.ar     23   G23       0.0492
    731 OP1         1.8250  -21.3940  -22.0310 O.co2    23   G23      -0.7760
    732 OP2         3.9440  -20.1780  -22.8230 O.co2    23   G23      -0.7760
    733 H5'         0.4453  -21.1977  -25.3200 H        23   G23       0.0679
    734 H5''        0.0877  -20.9569  -23.5977 H        23   G23       0.0679
    735 H4'        -0.2049  -18.5621  -23.9699 H        23   G23       0.1174
    736 H3'        -2.1525  -20.2730  -24.7004 H        23   G23       0.0615
    737 H2'        -1.0955  -20.7491  -26.8662 H        23   G23       0.0972
    738 H1'        -0.9490  -17.7425  -27.2718 H        23   G23       0.2006
    739 H1          2.3079  -16.2288  -31.8904 H        23   G23       0.3424
    740 H8          1.1017  -21.0426  -27.7949 H        23   G23       0.1640
    741 H21         1.1027  -14.4877  -31.4031 H        23   G23       0.4364
    742 H22        -0.0232  -14.4632  -30.0644 H        23   G23       0.4364
    743 HO2'       -3.1096  -20.4520  -27.5828 H        23   G23       0.4186
    744 P          -2.8760  -17.7340  -23.6330 P.3      24   G24       1.1662
    745 C5'        -2.2060  -15.2820  -24.1840 C.3      24   G24       0.0558
    746 O5'        -3.2190  -16.2100  -23.8400 O.3      24   G24      -0.4989
    747 C4'        -2.8520  -14.0280  -24.6970 C.3      24   G24       0.1065
    748 O4'        -1.8170  -13.0490  -25.0030 O.3      24   G24      -0.3548
    749 C3'        -3.6670  -14.2110  -25.9810 C.3      24   G24       0.2022
    750 O3'        -4.7850  -13.3350  -25.9580 O.3      24   G24      -0.5246
    751 C2'        -2.7120  -13.7170  -27.0490 C.3      24   G24       0.0670
    752 O2'        -3.3220  -13.2730  -28.2460 O.3      24   G24      -0.6139
    753 C1'        -2.0100  -12.5780  -26.3140 C.3      24   G24       0.0191
    754 N1          2.4850  -14.2900  -27.8990 N.am     24   G24      -0.4787
    755 C2          1.5390  -14.9090  -27.1150 C.2      24   G24       0.7657
    756 N2          1.8490  -16.1500  -26.7130 N.pl3    24   G24      -0.9672
    757 N3          0.4060  -14.3550  -26.7260 N.2      24   G24      -0.6323
    758 C4          0.2740  -13.1090  -27.2200 C.ar     24   G24       0.1222
    759 C5          1.1570  -12.3940  -28.0030 C.ar     24   G24       0.1744
    760 C6          2.3610  -13.0050  -28.4060 C.2      24   G24       0.4770
    761 O6          3.2460  -12.5270  -29.1110 O.2      24   G24      -0.5597
    762 N7          0.6650  -11.1240  -28.2860 N.ar     24   G24      -0.5709
    763 C8         -0.4860  -11.0870  -27.6810 C.ar     24   G24       0.1374
    764 N9         -0.7570  -12.2460  -26.9780 N.ar     24   G24       0.0492
    765 OP1        -1.8610  -17.9080  -22.5770 O.co2    24   G24      -0.7760
    766 OP2        -4.2000  -18.3580  -23.4090 O.co2    24   G24      -0.7760
    767 H5'        -1.5670  -15.7076  -24.9577 H        24   G24       0.0679
    768 H5''       -1.6079  -15.0506  -23.3026 H        24   G24       0.0679
    769 H4'        -3.5020  -13.6233  -23.9213 H        24   G24       0.1174
    770 H3'        -3.9601  -15.2490  -26.1385 H        24   G24       0.0615
    771 H2'        -1.9892  -14.4998  -27.2792 H        24   G24       0.0972
    772 H1'        -2.6573  -11.7012  -26.2957 H        24   G24       0.2006
    773 H1          3.3251  -14.8053  -28.1199 H        24   G24       0.3424
    774 H8         -1.1573  -10.2421  -27.7234 H        24   G24       0.1640
    775 H21         2.7215  -16.5705  -26.9994 H        24   G24       0.4364
    776 H22         1.2100  -16.6643  -26.1238 H        24   G24       0.4364
    777 HO2'       -3.7523  -14.0133  -28.6801 H        24   G24       0.4186
    778 P          -6.2660  -13.9250  -25.7620 P.3      25   G25       1.1662
    779 C5'        -6.4180  -12.8640  -23.3930 C.3      25   G25       0.0558
    780 O5'        -6.4110  -14.0410  -24.1820 O.3      25   G25      -0.4989
    781 C4'        -6.0680  -13.1310  -21.9560 C.3      25   G25       0.1065
    782 O4'        -4.7720  -13.7790  -21.8770 O.3      25   G25      -0.3548
    783 C3'        -5.9290  -11.8790  -21.1030 C.3      25   G25       0.2022
    784 O3'        -7.1780  -11.4440  -20.5880 O.3      25   G25      -0.5246
    785 C2'        -4.9380  -12.2870  -20.0210 C.3      25   G25       0.0670
    786 O2'        -5.6090  -12.9350  -18.9510 O.3      25   G25      -0.6139
    787 C1'        -4.0630  -13.3140  -20.7500 C.3      25   G25       0.0191
    788 N1         -1.5010  -10.0720  -23.8280 N.am     25   G25      -0.4787
    789 C2         -2.8500  -10.2710  -23.7180 C.2      25   G25       0.7657
    790 N2         -3.6140   -9.5330  -24.5290 N.pl3    25   G25      -0.9672
    791 N3         -3.4080  -11.1410  -22.8840 N.2      25   G25      -0.6323
    792 C4         -2.5050  -11.8150  -22.1490 C.ar     25   G25       0.1222
    793 C5         -1.1300  -11.6880  -22.1840 C.ar     25   G25       0.1744
    794 C6         -0.5470  -10.7560  -23.0880 C.2      25   G25       0.4770
    795 O6          0.6410  -10.4910  -23.2820 O.2      25   G25      -0.5597
    796 N7         -0.5310  -12.5570  -21.2830 N.ar     25   G25      -0.5709
    797 C8         -1.5380  -13.1770  -20.7230 C.ar     25   G25       0.1374
    798 N9         -2.7620  -12.7670  -21.1930 N.ar     25   G25       0.0492
    799 OP1        -6.3710  -15.2940  -26.3280 O.co2    25   G25      -0.7760
    800 OP2        -7.1400  -12.8230  -26.2520 O.co2    25   G25      -0.7760
    801 H5'        -5.6919  -12.1631  -23.8049 H        25   G25       0.0679
    802 H5''       -7.4096  -12.4136  -23.4380 H        25   G25       0.0679
    803 H4'        -6.8233  -13.7830  -21.5172 H        25   G25       0.1174
    804 H3'        -5.4931  -11.0820  -21.7055 H        25   G25       0.0615
    805 H2'        -4.3525  -11.4366  -19.6715 H        25   G25       0.0972
    806 H1'        -3.8794  -14.1547  -20.0810 H        25   G25       0.2006
    807 H1         -1.1783   -9.3820  -24.4913 H        25   G25       0.3424
    808 H8         -1.4185  -13.9371  -19.9651 H        25   G25       0.1640
    809 H21        -3.1866   -8.8760  -25.1660 H        25   G25       0.4364
    810 H22        -4.6188   -9.6323  -24.5050 H        25   G25       0.4364
    811 HO2'       -6.1603  -12.3004  -18.4873 H        25   G25       0.4186
    812 P          -7.7340   -9.9760  -20.9300 P.3      26   U26       1.1662
    813 C5'       -10.3110  -10.4010  -20.8960 C.3      26   U26       0.0558
    814 O5'        -9.1530   -9.9350  -20.2160 O.3      26   U26      -0.4989
    815 C4'       -11.2130   -9.2530  -21.2750 C.3      26   U26       0.1065
    816 O4'       -11.0390   -8.1850  -20.3040 O.3      26   U26      -0.3548
    817 C3'       -10.9320   -8.5880  -22.6220 C.3      26   U26       0.2022
    818 O3'       -11.5370   -9.2630  -23.7230 O.3      26   U26      -0.5246
    819 C2'       -11.4520   -7.1700  -22.4070 C.3      26   U26       0.0670
    820 O2'       -12.8680   -7.1350  -22.5010 O.3      26   U26      -0.6139
    821 C1'       -11.0730   -6.9290  -20.9480 C.3      26   U26       0.0674
    822 OP1        -8.0300   -9.9340  -22.3840 O.co2    26   U26      -0.7760
    823 OP2        -6.8060   -8.9630  -20.3590 O.co2    26   U26      -0.7760
    824 H5'       -10.8569  -11.0831  -20.2441 H        26   U26       0.0679
    825 H5''      -10.0079  -10.9323  -21.7982 H        26   U26       0.0679
    826 H4'       -12.2492   -9.5906  -21.2527 H        26   U26       0.1174
    827 H3'        -9.8541   -8.5495  -22.7796 H        26   U26       0.0615
    828 H2'       -10.9784   -6.4532  -23.0778 H        26   U26       0.0972
    829 H1'       -11.8146   -6.2873  -20.4723 H        26   U26       0.1824
    830 H1''      -10.0905   -6.4601  -20.8945 H        26   U26       0.0000
    831 HO2'      -13.1325   -7.2844  -23.4117 H        26   U26       0.4186
    832 P         -11.0010   -9.0450  -25.2290 P.3      27   A27       1.1662
    833 C5'        -9.2480   -7.3420  -26.1940 C.3      27   A27       0.0558
    834 O5'        -9.8360   -7.9720  -25.0670 O.3      27   A27      -0.4989
    835 C4'        -8.9330   -5.8990  -25.8890 C.3      27   A27       0.1065
    836 O4'        -8.3310   -5.7960  -24.5810 O.3      27   A27      -0.3548
    837 C3'        -7.9360   -5.2100  -26.8050 C.3      27   A27       0.2022
    838 O3'        -8.5310   -4.7680  -28.0050 O.3      27   A27      -0.5246
    839 C2'        -7.4260   -4.0650  -25.9410 C.3      27   A27       0.0670
    840 O2'        -8.3390   -2.9730  -25.9660 O.3      27   A27      -0.6139
    841 C1'        -7.4620   -4.6840  -24.5440 C.3      27   A27       0.0394
    842 N1         -2.9250   -2.9000  -23.1570 N.ar     27   A27      -0.7615
    843 C2         -4.0510   -2.3160  -23.5770 C.ar     27   A27       0.5875
    844 N3         -5.2050   -2.8750  -23.9190 N.ar     27   A27      -0.6997
    845 C4         -5.1250   -4.2140  -23.8080 C.ar     27   A27       0.3053
    846 C5         -4.0470   -4.9630  -23.4040 C.ar     27   A27       0.0515
    847 C6         -2.8860   -4.2550  -23.0670 C.ar     27   A27       0.7009
    848 N6         -1.7560   -4.8190  -22.6520 N.pl3    27   A27      -0.9019
    849 N7         -4.3630   -6.3100  -23.4200 N.ar     27   A27      -0.6073
    850 C8         -5.6100   -6.3510  -23.8310 C.ar     27   A27       0.2006
    851 N9         -6.1280   -5.1060  -24.0840 N.ar     27   A27      -0.0251
    852 OP1       -12.0620   -8.4140  -26.0560 O.co2    27   A27      -0.7760
    853 OP2       -10.3910  -10.3240  -25.6700 O.co2    27   A27      -0.7760
    854 H5'        -8.3267   -7.8625  -26.4554 H        27   A27       0.0679
    855 H5''       -9.9397   -7.3897  -27.0350 H        27   A27       0.0679
    856 H4'        -9.8625   -5.3297  -25.8922 H        27   A27       0.1174
    857 H3'        -7.1158   -5.8910  -27.0320 H        27   A27       0.0615
    858 H2'        -6.4188   -3.7593  -26.2243 H        27   A27       0.0972
    859 H1'        -7.8598   -3.9495  -23.8437 H        27   A27       0.2007
    860 H2         -4.0173   -1.2389  -23.6481 H        27   A27       0.0473
    861 H8         -6.1680   -7.2671  -23.9564 H        27   A27       0.1553
    862 H61        -1.7513   -5.8223  -22.7683 H        27   A27       0.4115
    863 H62        -0.9833   -4.2989  -22.2614 H        27   A27       0.4115
    864 HO2'       -8.3318   -2.5691  -26.8369 H        27   A27       0.4186
    865 P          -7.7790   -4.9320  -29.4050 P.3      28   G28       1.1662
    866 C5'        -6.5420   -2.6330  -29.2790 C.3      28   G28       0.0558
    867 O5'        -6.4700   -4.0530  -29.2620 O.3      28   G28      -0.4989
    868 C4'        -5.2620   -2.0420  -28.7560 C.3      28   G28       0.1065
    869 O4'        -4.9920   -2.5760  -27.4380 O.3      28   G28      -0.3548
    870 C3'        -4.0030   -2.3650  -29.5400 C.3      28   G28       0.2022
    871 O3'        -3.8380   -1.5320  -30.6680 O.3      28   G28      -0.5246
    872 C2'        -2.9180   -2.1600  -28.5000 C.3      28   G28       0.0670
    873 O2'        -2.7110   -0.7680  -28.2960 O.3      28   G28      -0.6139
    874 C1'        -3.6010   -2.7090  -27.2530 C.3      28   G28       0.0191
    875 N1         -0.2830   -6.1250  -25.4170 N.am     28   G28      -0.4787
    876 C2         -0.1970   -4.7470  -25.4580 C.2      28   G28       0.7657
    877 N2          0.9010   -4.1640  -24.9550 N.pl3    28   G28      -0.9672
    878 N3         -1.1260   -3.9690  -25.9780 N.2      28   G28      -0.6323
    879 C4         -2.1820   -4.6610  -26.4400 C.ar     28   G28       0.1222
    880 C5         -2.3770   -6.0240  -26.4510 C.ar     28   G28       0.1744
    881 C6         -1.3650   -6.8490  -25.9040 C.2      28   G28       0.4770
    882 O6         -1.3580   -8.0850  -25.8100 O.2      28   G28      -0.5597
    883 N7         -3.6000   -6.3410  -27.0300 N.ar     28   G28      -0.5709
    884 C8         -4.1230   -5.1840  -27.3590 C.ar     28   G28       0.1374
    885 N9         -3.3030   -4.1360  -27.0290 N.ar     28   G28       0.0492
    886 OP1        -8.6440   -4.3320  -30.4550 O.co2    28   G28      -0.7760
    887 OP2        -7.2920   -6.3340  -29.5230 O.co2    28   G28      -0.7760
    888 H5'        -6.7039   -2.2930  -30.3019 H        28   G28       0.0679
    889 H5''       -7.3728   -2.3059  -28.6538 H        28   G28       0.0679
    890 H4'        -5.3711   -0.9597  -28.6867 H        28   G28       0.1174
    891 H3'        -4.0213   -3.4091  -29.8525 H        28   G28       0.0615
    892 H2'        -1.9974   -2.6906  -28.7430 H        28   G28       0.0972
    893 H1'        -3.2915   -2.1304  -26.3826 H        28   G28       0.2006
    894 H1          0.4861   -6.6370  -25.0089 H        28   G28       0.3424
    895 H8         -5.0863   -5.0703  -27.8340 H        28   G28       0.1640
    896 H21         1.6350   -4.7304  -24.5544 H        28   G28       0.4364
    897 H22         0.9939   -3.1585  -24.9768 H        28   G28       0.4364
    898 HO2'       -2.2807   -0.3916  -29.0672 H        28   G28       0.4186
    899 P          -3.8600   -2.1390  -32.1470 P.3      29   U29       1.1662
    900 C5'        -1.2950   -2.5900  -31.8800 C.3      29   U29       0.0558
    901 O5'        -2.5800   -3.0840  -32.1990 O.3      29   U29      -0.4989
    902 C4'        -0.4010   -3.7150  -31.4330 C.3      29   U29       0.1065
    903 O4'        -0.9620   -4.3410  -30.2500 O.3      29   U29      -0.3548
    904 C3'        -0.2610   -4.8680  -32.4120 C.3      29   U29       0.2022
    905 O3'         0.6510   -4.5880  -33.4550 O.3      29   U29      -0.5246
    906 C2'         0.1730   -6.0080  -31.4990 C.3      29   U29       0.0670
    907 O2'         1.5370   -5.8640  -31.1200 O.3      29   U29      -0.6139
    908 C1'        -0.6880   -5.7330  -30.2690 C.3      29   U29       0.0674
    909 N1         -1.9740   -6.4690  -30.3120 N.am     29   U29       0.0418
    910 C2         -1.9900   -7.7720  -29.8790 C.2      29   U29       0.4687
    911 O2         -0.9810   -8.3230  -29.4750 O.2      29   U29      -0.5477
    912 N3         -3.2130   -8.4040  -29.9250 N.am     29   U29      -0.3549
    913 C4         -4.4030   -7.8730  -30.3680 C.2      29   U29       0.5952
    914 O4         -5.4250   -8.5700  -30.3600 O.2      29   U29      -0.5761
    915 C5         -4.3070   -6.5110  -30.7990 C.2      29   U29      -0.3635
    916 C6         -3.1310   -5.8780  -30.7570 C.2      29   U29      -0.1126
    917 OP1        -3.6240   -1.0120  -33.0870 O.co2    29   U29      -0.7760
    918 OP2        -5.0580   -2.9880  -32.2990 O.co2    29   U29      -0.7760
    919 H5'        -0.8630   -2.1156  -32.7611 H        29   U29       0.0679
    920 H5''       -1.3791   -1.8555  -31.0790 H        29   U29       0.0679
    921 H4'         0.5870   -3.3192  -31.1978 H        29   U29       0.1174
    922 H3'        -1.2370   -5.0993  -32.8387 H        29   U29       0.0615
    923 H2'        -0.0322   -6.9857  -31.9350 H        29   U29       0.0972
    924 H1'        -0.1386   -6.0096  -29.3691 H        29   U29       0.1824
    925 H3         -3.2393   -9.3595  -29.5987 H        29   U29       0.3154
    926 H5         -5.1853   -5.9952  -31.1581 H        29   U29       0.1811
    927 H6         -3.0883   -4.8513  -31.0893 H        29   U29       0.2188
    928 HO2'        2.0039   -6.6865  -31.2845 H        29   U29       0.4186
    929 P           0.5530   -5.3600  -34.8520 P.3      30   U30       1.1662
    930 C5'         1.0320   -7.8750  -35.3950 C.3      30   U30       0.0558
    931 O5'         1.1980   -6.7770  -34.5140 O.3      30   U30      -0.4989
    932 C4'         2.3470   -8.2730  -36.0080 C.3      30   U30       0.1065
    933 O4'         3.2460   -8.7700  -34.9800 O.3      30   U30      -0.3548
    934 C3'         2.2820   -9.4090  -37.0120 C.3      30   U30       0.2022
    935 O3'         1.8550   -8.9890  -38.2920 O.3      30   U30      -0.5246
    936 C2'         3.7020   -9.9480  -36.9840 C.3      30   U30       0.0670
    937 O2'         4.5880   -9.0750  -37.6760 O.3      30   U30      -0.6139
    938 C1'         4.0170   -9.8380  -35.4970 C.3      30   U30       0.0674
    939 N1          3.6740  -11.0790  -34.7540 N.am     30   U30       0.0418
    940 C2          4.4660  -12.1980  -34.9820 C.2      30   U30       0.4687
    941 O2          5.3870  -12.2090  -35.7750 O.2      30   U30      -0.5477
    942 N3          4.1330  -13.3230  -34.2630 N.am     30   U30      -0.3549
    943 C4          3.1190  -13.4350  -33.3440 C.2      30   U30       0.5952
    944 O4          2.9390  -14.5080  -32.7760 O.2      30   U30      -0.5761
    945 C5          2.3500  -12.2420  -33.1520 C.2      30   U30      -0.3635
    946 C6          2.6500  -11.1320  -33.8420 C.2      30   U30      -0.1126
    947 OP1         1.4590   -4.6380  -35.7780 O.co2    30   U30      -0.7760
    948 OP2        -0.8660   -5.6120  -35.2160 O.co2    30   U30      -0.7760
    949 H5'         0.3387   -7.5948  -36.1880 H        30   U30       0.0679
    950 H5''        0.6228   -8.7206  -34.8421 H        30   U30       0.0679
    951 H4'         2.7967   -7.4017  -36.4841 H        30   U30       0.1174
    952 H3'         1.6012  -10.1753  -36.6414 H        30   U30       0.0615
    953 H2'         3.7635  -10.9742  -37.3464 H        30   U30       0.0972
    954 H1'         5.0764   -9.6176  -35.3658 H        30   U30       0.1824
    955 H3          4.6903  -14.1491  -34.4278 H        30   U30       0.3154
    956 H5          1.5282  -12.2364  -32.4512 H        30   U30       0.1811
    957 H6          2.0611  -10.2426  -33.6729 H        30   U30       0.2188
    958 HO2'        4.4132   -9.1224  -38.6188 H        30   U30       0.4186
    959 P           0.7460   -9.8380  -39.0810 P.3      31   G31       1.1662
    960 C5'         2.5930  -11.2910  -40.2560 C.3      31   G31       0.0558
    961 O5'         1.4760  -11.2190  -39.3870 O.3      31   G31      -0.4989
    962 C4'         3.3030  -12.6150  -40.1180 C.3      31   G31       0.1065
    963 O4'         3.8250  -12.7500  -38.7680 O.3      31   G31      -0.3548
    964 C3'         2.4590  -13.8690  -40.3060 C.3      31   G31       0.2022
    965 O3'         2.2370  -14.2060  -41.6660 O.3      31   G31      -0.5246
    966 C2'         3.2740  -14.9050  -39.5560 C.3      31   G31       0.0670
    967 O2'         4.4250  -15.2480  -40.3090 O.3      31   G31      -0.6139
    968 C1'         3.7250  -14.0920  -38.3490 C.3      31   G31       0.0191
    969 N1          1.6140  -17.0980  -34.8910 N.am     31   G31      -0.4787
    970 C2          2.6400  -17.3400  -35.7700 C.2      31   G31       0.7657
    971 N2          3.1790  -18.5710  -35.7430 N.pl3    31   G31      -0.9672
    972 N3          3.1060  -16.4560  -36.6340 N.2      31   G31      -0.6323
    973 C4          2.4500  -15.2770  -36.5380 C.ar     31   G31       0.1222
    974 C5          1.4180  -14.9210  -35.7000 C.ar     31   G31       0.1744
    975 C6          0.9240  -15.8860  -34.7840 C.2      31   G31       0.4770
    976 O6          0.0180  -15.7660  -33.9560 O.2      31   G31      -0.5597
    977 N7          1.0290  -13.6090  -35.9270 N.ar     31   G31      -0.5709
    978 C8          1.8200  -13.2010  -36.8820 C.ar     31   G31       0.1374
    979 N9          2.7090  -14.1650  -37.2880 N.ar     31   G31       0.0492
    980 OP1         0.4860   -9.1320  -40.3610 O.co2    31   G31      -0.7760
    981 OP2        -0.3720  -10.1590  -38.1630 O.co2    31   G31      -0.7760
    982 H5'         2.2518  -11.1755  -41.2847 H        31   G31       0.0679
    983 H5''        3.2867  -10.4853  -40.0158 H        31   G31       0.0679
    984 H4'         4.1353  -12.6426  -40.8212 H        31   G31       0.1174
    985 H3'         1.4993  -13.7354  -39.8068 H        31   G31       0.0615
    986 H2'         2.6837  -15.7772  -39.2750 H        31   G31       0.0972
    987 H1'         4.6868  -14.4514  -37.9832 H        31   G31       0.2006
    988 H1          1.3370  -17.8501  -34.2765 H        31   G31       0.3424
    989 H8          1.7793  -12.2093  -37.3079 H        31   G31       0.1640
    990 H21         2.8302  -19.2609  -35.0930 H        31   G31       0.4364
    991 H22         3.9328  -18.8061  -36.3727 H        31   G31       0.4364
    992 HO2'        5.0208  -15.7671  -39.7639 H        31   G31       0.4186
    993 P           0.8950  -14.9740  -42.1170 P.3      32   U32       1.1662
    994 C5'         2.0450  -17.2930  -41.7620 C.3      32   U32       0.0558
    995 O5'         0.9940  -16.4020  -41.4280 O.3      32   U32      -0.4989
    996 C4'         2.0170  -18.5320  -40.9050 C.3      32   U32       0.1065
    997 O4'         2.1020  -18.1830  -39.4980 O.3      32   U32      -0.3548
    998 C3'         0.7600  -19.3790  -40.9920 C.3      32   U32       0.2022
    999 O3'         0.7380  -20.1940  -42.1450 O.3      32   U32      -0.5246
   1000 C2'         0.8090  -20.1630  -39.6910 C.3      32   U32       0.0670
   1001 O2'         1.7630  -21.2090  -39.7770 O.3      32   U32      -0.6139
   1002 C1'         1.3590  -19.1100  -38.7320 C.3      32   U32       0.0674
   1003 N1          0.2790  -18.3940  -38.0120 N.am     32   U32       0.0418
   1004 C2         -0.3790  -19.0960  -37.0210 C.2      32   U32       0.4687
   1005 O2         -0.1100  -20.2530  -36.7320 O.2      32   U32      -0.5477
   1006 N3         -1.3630  -18.3990  -36.3620 N.am     32   U32      -0.3549
   1007 C4         -1.7490  -17.0940  -36.6070 C.2      32   U32       0.5952
   1008 O4         -2.6590  -16.5990  -35.9360 O.2      32   U32      -0.5761
   1009 C5         -1.0170  -16.4400  -37.6490 C.2      32   U32      -0.3635
   1010 C6         -0.0500  -17.0920  -38.3030 C.2      32   U32      -0.1126
   1011 OP1         0.9900  -15.1950  -43.5810 O.co2    32   U32      -0.7760
   1012 OP2        -0.2730  -14.2500  -41.5550 O.co2    32   U32      -0.7760
   1013 H5'         1.9427  -17.5841  -42.8074 H        32   U32       0.0679
   1014 H5''        3.0000  -16.7857  -41.6247 H        32   U32       0.0679
   1015 H4'         2.8747  -19.1535  -41.1625 H        32   U32       0.1174
   1016 H3'        -0.1153  -18.7294  -40.9908 H        32   U32       0.0615
   1017 H2'        -0.1741  -20.5240  -39.3888 H        32   U32       0.0972
   1018 H1'         2.0179  -19.5902  -38.0086 H        32   U32       0.1824
   1019 H3         -1.8525  -18.8881  -35.6262 H        32   U32       0.3154
   1020 H5         -1.2465  -15.4169  -37.9077 H        32   U32       0.1811
   1021 H6          0.4898  -16.5788  -39.0851 H        32   U32       0.2188
   1022 HO2'        1.9001  -21.5895  -38.9063 H        32   U32       0.4186
   1023 P          -0.6520  -20.6590  -42.7990 P.3      33   C33       1.1662
   1024 C5'        -0.5960  -22.9380  -41.5160 C.3      33   C33       0.0558
   1025 O5'        -1.2480  -21.7050  -41.7640 O.3      33   C33      -0.4989
   1026 C4'        -1.3350  -23.7420  -40.4820 C.3      33   C33       0.1065
   1027 O4'        -1.2900  -23.0670  -39.1950 O.3      33   C33      -0.3548
   1028 C3'        -2.8210  -23.9310  -40.7310 C.3      33   C33       0.2022
   1029 O3'        -3.0990  -24.9290  -41.6920 O.3      33   C33      -0.5246
   1030 C2'        -3.3330  -24.2610  -39.3410 C.3      33   C33       0.0670
   1031 O2'        -2.9730  -25.5910  -38.9930 O.3      33   C33      -0.6139
   1032 C1'        -2.4940  -23.3060  -38.4930 C.3      33   C33       0.0066
   1033 N1         -3.1840  -22.0110  -38.2720 N.am     33   C33      -0.0484
   1034 C2         -4.2010  -21.9530  -37.3150 C.2      33   C33       0.7538
   1035 O2         -4.4980  -22.9710  -36.6850 O.2      33   C33      -0.6252
   1036 N3         -4.8470  -20.7810  -37.0940 N.2      33   C33      -0.7584
   1037 C4         -4.5030  -19.6970  -37.7900 C.2      33   C33       0.8185
   1038 N4         -5.1680  -18.5640  -37.5470 N.pl3    33   C33      -0.9530
   1039 C5         -3.4730  -19.7210  -38.7760 C.2      33   C33      -0.5215
   1040 C6         -2.8490  -20.8880  -38.9780 C.2      33   C33       0.0053
   1041 OP1        -0.2770  -21.4070  -44.0260 O.co2    33   C33      -0.7760
   1042 OP2        -1.5860  -19.5130  -42.8740 O.co2    33   C33      -0.7760
   1043 H5'        -0.5486  -23.5085  -42.4435 H        33   C33       0.0679
   1044 H5''        0.4166  -22.7435  -41.1626 H        33   C33       0.0679
   1045 H4'        -0.8629  -24.7199  -40.3875 H        33   C33       0.1174
   1046 H3'        -3.2538  -22.9858  -41.0586 H        33   C33       0.0615
   1047 H2'        -4.4027  -24.0789  -39.2375 H        33   C33       0.0972
   1048 H1'        -2.2710  -23.7701  -37.5322 H        33   C33       0.2029
   1049 H5         -3.2079  -18.8361  -39.3355 H        33   C33       0.1928
   1050 H6         -2.0624  -20.9443  -39.7159 H        33   C33       0.1958
   1051 H41        -5.9007  -18.5476  -36.8520 H        33   C33       0.4234
   1052 H42        -4.9380  -17.7239  -38.0583 H        33   C33       0.4234
   1053 HO2'       -3.1478  -25.7359  -38.0602 H        33   C33       0.4186
   1054 P          -4.4200  -24.8370  -42.6000 P.3      34   G34       1.1662
   1055 C5'        -5.6000  -26.5890  -41.0580 C.3      34   G34       0.0558
   1056 O5'        -5.5850  -25.2910  -41.6220 O.3      34   G34      -0.4989
   1057 C4'        -6.7660  -26.7570  -40.1250 C.3      34   G34       0.1065
   1058 O4'        -6.6270  -25.8490  -39.0040 O.3      34   G34      -0.3548
   1059 C3'        -8.1300  -26.4130  -40.6990 C.3      34   G34       0.2022
   1060 O3'        -8.6690  -27.4520  -41.4920 O.3      34   G34      -0.5246
   1061 C2'        -8.9430  -26.1140  -39.4490 C.3      34   G34       0.0670
   1062 O2'        -9.3090  -27.3170  -38.7890 O.3      34   G34      -0.6139
   1063 C1'        -7.9020  -25.4100  -38.5840 C.3      34   G34       0.0191
   1064 N1        -10.3470  -21.1550  -37.2960 N.am     34   G34      -0.4787
   1065 C2        -10.6570  -22.4580  -36.9960 C.2      34   G34       0.7657
   1066 N2        -11.7520  -22.6630  -36.2490 N.pl3    34   G34      -0.9672
   1067 N3         -9.9390  -23.4990  -37.3960 N.2      34   G34      -0.6323
   1068 C4         -8.8820  -23.1100  -38.1360 C.ar     34   G34       0.1222
   1069 C5         -8.4860  -21.8400  -38.4910 C.ar     34   G34       0.1744
   1070 C6         -9.2600  -20.7370  -38.0570 C.2      34   G34       0.4770
   1071 O6         -9.0560  -19.5320  -38.2760 O.2      34   G34      -0.5597
   1072 N7         -7.3350  -21.8770  -39.2640 N.ar     34   G34      -0.5709
   1073 C8         -7.0510  -23.1460  -39.3530 C.ar     34   G34       0.1374
   1074 N9         -7.9500  -23.9440  -38.7010 N.ar     34   G34       0.0492
   1075 OP1        -4.2710  -25.9210  -43.6100 O.co2    34   G34      -0.7760
   1076 OP2        -4.7060  -23.4460  -43.0170 O.co2    34   G34      -0.7760
   1077 H5'        -4.6747  -26.7476  -40.5042 H        34   G34       0.0679
   1078 H5''       -5.6708  -27.3267  -41.8573 H        34   G34       0.0679
   1079 H4'        -6.7824  -27.7820  -39.7546 H        34   G34       0.1174
   1080 H3'        -8.0489  -25.5073  -41.3001 H        34   G34       0.0615
   1081 H2'        -9.8040  -25.4791  -39.6582 H        34   G34       0.0972
   1082 H1'        -8.0525  -25.6914  -37.5418 H        34   G34       0.2006
   1083 H1        -10.9601  -20.4389  -36.9335 H        34   G34       0.3424
   1084 H8         -6.1935  -23.5281  -39.8870 H        34   G34       0.1640
   1085 H21       -12.3050  -21.8774  -35.9373 H        34   G34       0.4364
   1086 H22       -12.0235  -23.6029  -35.9982 H        34   G34       0.4364
   1087 HO2'       -9.9654  -27.7827  -39.3123 H        34   G34       0.4186
   1088 P          -9.5950  -27.0920  -42.7530 P.3      35   U35       1.1662
   1089 C5'       -11.7590  -27.6100  -41.3650 C.3      35   U35       0.0558
   1090 O5'       -10.9950  -26.6790  -42.1160 O.3      35   U35      -0.4989
   1091 C4'       -12.9230  -26.9410  -40.6800 C.3      35   U35       0.1065
   1092 O4'       -12.4400  -25.9960  -39.6880 O.3      35   U35      -0.3548
   1093 C3'       -13.8280  -26.0990  -41.5660 C.3      35   U35       0.2022
   1094 O3'       -14.7490  -26.8700  -42.3190 O.3      35   U35      -0.5246
   1095 C2'       -14.4850  -25.1690  -40.5600 C.3      35   U35       0.0670
   1096 O2'       -15.4860  -25.8650  -39.8340 O.3      35   U35      -0.6139
   1097 C1'       -13.3200  -24.8930  -39.6110 C.3      35   U35       0.0674
   1098 N1        -12.5780  -23.6700  -39.9910 N.am     35   U35       0.0418
   1099 C2        -13.1260  -22.4560  -39.6280 C.2      35   U35       0.4687
   1100 O2        -14.1750  -22.3590  -39.0160 O.2      35   U35      -0.5477
   1101 N3        -12.3900  -21.3630  -40.0010 N.am     35   U35      -0.3549
   1102 C4        -11.1990  -21.3530  -40.6930 C.2      35   U35       0.5952
   1103 O4        -10.6610  -20.2810  -40.9570 O.2      35   U35      -0.5761
   1104 C5        -10.6960  -22.6490  -41.0410 C.2      35   U35      -0.3635
   1105 C6        -11.3900  -23.7290  -40.6820 C.2      35   U35      -0.1126
   1106 OP1        -9.7980  -28.3590  -43.4990 O.co2    35   U35      -0.7760
   1107 OP2        -9.0380  -25.9020  -43.4430 O.co2    35   U35      -0.7760
   1108 H5'       -12.1380  -28.3808  -42.0361 H        35   U35       0.0679
   1109 H5''      -11.1199  -28.0732  -40.6133 H        35   U35       0.0679
   1110 H4'       -13.5242  -27.7011  -40.1811 H        35   U35       0.1174
   1111 H3'       -13.2135  -25.5109  -42.2476 H        35   U35       0.0615
   1112 H2'       -14.8663  -24.2593  -41.0239 H        35   U35       0.0972
   1113 H1'       -13.6936  -24.7930  -38.5919 H        35   U35       0.1824
   1114 H3        -12.7629  -20.4617  -39.7389 H        35   U35       0.3154
   1115 H5         -9.7689  -22.7491  -41.5858 H        35   U35       0.1811
   1116 H6        -10.9995  -24.7003  -40.9473 H        35   U35       0.2188
   1117 HO2'      -16.2304  -26.0500  -40.4113 H        35   U35       0.4186
   1118 P         -15.2560  -26.3550  -43.7560 P.3      36   A36       1.1662
   1119 C5'       -17.3660  -25.2360  -42.6930 C.3      36   A36       0.0558
   1120 O5'       -16.1540  -25.0890  -43.4140 O.3      36   A36      -0.4989
   1121 C4'       -17.9580  -23.8980  -42.3410 C.3      36   A36       0.1065
   1122 O4'       -17.0500  -23.1680  -41.4770 O.3      36   A36      -0.3548
   1123 C3'       -18.1920  -22.9520  -43.5050 C.3      36   A36       0.2022
   1124 O3'       -19.3760  -23.2510  -44.2220 O.3      36   A36      -0.5246
   1125 C2'       -18.2090  -21.5910  -42.8220 C.3      36   A36       0.0670
   1126 O2'       -19.4560  -21.3730  -42.1750 O.3      36   A36      -0.6139
   1127 C1'       -17.1420  -21.7850  -41.7450 C.3      36   A36       0.0394
   1128 N1        -14.1190  -17.6600  -42.1640 N.ar     36   A36      -0.7615
   1129 C2        -15.3770  -17.8300  -41.7420 C.ar     36   A36       0.5875
   1130 N3        -16.0980  -18.9460  -41.6630 N.ar     36   A36      -0.6997
   1131 C4        -15.3900  -19.9960  -42.0940 C.ar     36   A36       0.3053
   1132 C5        -14.0910  -19.9880  -42.5630 C.ar     36   A36       0.0515
   1133 C6        -13.4350  -18.7420  -42.5920 C.ar     36   A36       0.7009
   1134 N6        -12.1830  -18.5690  -43.0150 N.pl3    36   A36      -0.9019
   1135 N7        -13.6960  -21.2720  -42.9200 N.ar     36   A36      -0.6073
   1136 C8        -14.7510  -22.0080  -42.6620 C.ar     36   A36       0.2006
   1137 N9        -15.8140  -21.2950  -42.1610 N.ar     36   A36      -0.0251
   1138 OP1       -16.1350  -27.4220  -44.3000 O.co2    36   A36      -0.7760
   1139 OP2       -14.1110  -25.8750  -44.5690 O.co2    36   A36      -0.7760
   1140 H5'       -18.0783  -25.7894  -43.3050 H        36   A36       0.0679
   1141 H5''      -17.1720  -25.7938  -41.7768 H        36   A36       0.0679
   1142 H4'       -18.9000  -24.0538  -41.8153 H        36   A36       0.1174
   1143 H3'       -17.3403  -23.0015  -44.1835 H        36   A36       0.0615
   1144 H2'       -17.9565  -20.7836  -43.5093 H        36   A36       0.0972
   1145 H1'       -17.4487  -21.2636  -40.8383 H        36   A36       0.2007
   1146 H2        -15.8807  -16.9312  -41.4184 H        36   A36       0.0473
   1147 H8        -14.7814  -23.0748  -42.8278 H        36   A36       0.1553
   1148 HO2'      -19.9136  -20.6432  -42.5988 H        36   A36       0.4186
   1149 H61       -11.7772  -17.7676  -42.5533 H        36   A36       0.4115
   1150 H62       -11.7121  -19.1504  -43.6935 H        36   A36       0.4115
   1151 P         -19.4540  -22.9820  -45.8040 P.3      37   C37       1.1662
   1152 C5'       -20.6290  -20.7020  -45.3190 C.3      37   C37       0.0558
   1153 O5'       -19.5400  -21.3950  -45.9030 O.3      37   C37      -0.4989
   1154 C4'       -20.4200  -19.2110  -45.3410 C.3      37   C37       0.1065
   1155 O4'       -19.3340  -18.8470  -44.4510 O.3      37   C37      -0.3548
   1156 C3'       -20.0130  -18.6040  -46.6720 C.3      37   C37       0.2022
   1157 O3'       -21.0980  -18.4550  -47.5710 O.3      37   C37      -0.6541
   1158 C2'       -19.3800  -17.2860  -46.2430 C.3      37   C37       0.0670
   1159 O2'       -20.3800  -16.3330  -45.9110 O.3      37   C37      -0.6139
   1160 C1'       -18.6670  -17.7050  -44.9530 C.3      37   C37       0.0066
   1161 N1        -17.2480  -18.0490  -45.1990 N.am     37   C37      -0.0484
   1162 C2        -16.3050  -17.0240  -45.1640 C.2      37   C37       0.7538
   1163 O2        -16.6840  -15.8700  -44.9150 O.2      37   C37      -0.6252
   1164 N3        -15.0040  -17.3160  -45.3970 N.2      37   C37      -0.7584
   1165 C4        -14.6380  -18.5710  -45.6580 C.2      37   C37       0.8185
   1166 N4        -13.3420  -18.8170  -45.8760 N.pl3    37   C37      -0.9530
   1167 C5        -15.5800  -19.6360  -45.7020 C.2      37   C37      -0.5215
   1168 C6        -16.8620  -19.3330  -45.4690 C.2      37   C37       0.0053
   1169 OP1       -20.7450  -23.5500  -46.2730 O.co2    37   C37      -0.7760
   1170 OP2       -18.1960  -23.4300  -46.4520 O.co2    37   C37      -0.7760
   1171 H5'       -21.5364  -20.9391  -45.8744 H        37   C37       0.0679
   1172 H5''      -20.7474  -21.0300  -44.2863 H        37   C37       0.0679
   1173 H4'       -21.3328  -18.7239  -44.9979 H        37   C37       0.1174
   1174 H3'       -19.2511  -19.2326  -47.1330 H        37   C37       0.0615
   1175 H2'       -18.6836  -16.9047  -46.9898 H        37   C37       0.0972
   1176 H1'       -18.7261  -16.8971  -44.2237 H        37   C37       0.2029
   1177 H5        -15.2724  -20.6491  -45.9151 H        37   C37       0.1928
   1178 H6        -17.6053  -20.1161  -45.4946 H        37   C37       0.1958
   1179 H41       -12.6721  -18.0619  -45.8427 H        37   C37       0.4234
   1180 H42       -13.0329  -19.7579  -46.0740 H        37   C37       0.4234
   1181 HO3'      -20.7835  -18.0686  -48.3916 H        37   C37       0.4376
   1182 HO2'      -20.8383  -16.0583  -46.7086 H        37   C37       0.4186
   1183 MG         -6.3010  -17.3240  -27.2010 Mg       38  MG101      2.0000
   1184 MG         -7.5800   -8.1200  -30.4350 Mg       39  MG102      2.0000
   1185 MG          4.8530  -22.4350  -31.7790 Mg       40  MG103      2.0000
   1186 MG         -7.2490  -18.3250  -41.9020 Mg       41  MG104      2.0000
   1187 MG          0.0000    0.0000  -24.8040 Mg       42  MG105      2.0000
   1188 NA         19.1200   -6.2070  -33.1570 Na       43  NA107      1.0000
   1189 NA         -7.8760  -14.7060  -34.4010 Na       44  NA108      1.0000
   1190 K           5.9230  -13.1220  -29.4040 K        45   K109      1.0000
@<TRIPOS>BOND
     1    1    3 1
     2    1    2 1
     3    2    7 1
     4    3    5 1
     5    3    4 1
     6    5    7 1
     7    5    6 1
     8    7   18 1
     9    8    9 1
    10    8   14 am
    11    9   10 2
    12    9   11 2
    13   11   12 1
    14   12   18 ar
    15   12   13 ar
    16   13   16 ar
    17   13   14 1
    18   14   15 2
    19   16   17 ar
    20   17   18 ar
    21   29   48 1
    22   29   47 1
    23   29   31 1
    24   30   32 1
    25   30   31 1
    26   32   34 1
    27   32   33 1
    28   33   38 1
    29   34   35 1
    30   34   36 1
    31   36   37 1
    32   36   38 1
    33   38   39 1
    34   39   46 1
    35   39   40 am
    36   40   42 am
    37   40   41 2
    38   42   43 am
    39   43   44 2
    40   43   45 1
    41   45   46 2
    42   29    4 1
    43   59   80 1
    44   59   79 1
    45   59   61 1
    46   60   62 1
    47   60   61 1
    48   62   63 1
    49   62   64 1
    50   63   68 1
    51   64   66 1
    52   64   65 1
    53   66   68 1
    54   66   67 1
    55   68   78 1
    56   69   74 ar
    57   69   70 ar
    58   70   71 ar
    59   71   72 ar
    60   72   73 ar
    61   72   78 ar
    62   73   74 ar
    63   73   76 ar
    64   74   75 1
    65   76   77 ar
    66   77   78 ar
    67   35   59 1
    68   92   94 1
    69   92  111 1
    70   92  110 1
    71   93   94 1
    72   93   95 1
    73   95   97 1
    74   95   96 1
    75   96  101 1
    76   97   99 1
    77   97   98 1
    78   99  100 1
    79   99  101 1
    80  101  102 1
    81  102  103 am
    82  102  109 1
    83  103  104 2
    84  103  105 1
    85  105  106 2
    86  106  108 2
    87  106  107 2
    88  108  109 2
    89   65   92 1
    90  123  144 1
    91  123  145 1
    92  123  125 1
    93  124  125 1
    94  124  126 1
    95  126  128 1
    96  126  127 1
    97  127  132 1
    98  128  130 1
    99  128  129 1
   100  130  132 1
   101  130  131 1
   102  132  143 1
   103  133  134 1
   104  133  139 am
   105  134  135 2
   106  134  136 2
   107  136  137 1
   108  137  143 ar
   109  137  138 ar
   110  138  141 ar
   111  138  139 1
   112  139  140 2
   113  141  142 ar
   114  142  143 ar
   115   98  123 1
   116  157  178 1
   117  157  177 1
   118  157  159 1
   119  158  160 1
   120  158  159 1
   121  160  161 1
   122  160  162 1
   123  161  166 1
   124  162  164 1
   125  162  163 1
   126  164  166 1
   127  164  165 1
   128  166  176 1
   129  167  172 ar
   130  167  168 ar
   131  168  169 ar
   132  169  170 ar
   133  170  171 ar
   134  170  176 ar
   135  171  172 ar
   136  171  174 ar
   137  172  173 1
   138  174  175 ar
   139  175  176 ar
   140  129  157 1
   141  190  211 1
   142  190  210 1
   143  190  192 1
   144  191  193 1
   145  191  192 1
   146  193  194 1
   147  193  195 1
   148  194  199 1
   149  195  197 1
   150  195  196 1
   151  197  199 1
   152  197  198 1
   153  199  209 1
   154  200  205 ar
   155  200  201 ar
   156  201  202 ar
   157  202  203 ar
   158  203  204 ar
   159  203  209 ar
   160  204  205 ar
   161  204  207 ar
   162  205  206 1
   163  207  208 ar
   164  208  209 ar
   165  163  190 1
   166  223  244 1
   167  223  245 1
   168  223  225 1
   169  224  225 1
   170  224  226 1
   171  226  228 1
   172  226  227 1
   173  227  232 1
   174  228  230 1
   175  228  229 1
   176  230  232 1
   177  230  231 1
   178  232  243 1
   179  233  234 1
   180  233  239 am
   181  234  235 2
   182  234  236 2
   183  236  237 1
   184  237  243 ar
   185  237  238 ar
   186  238  241 ar
   187  238  239 1
   188  239  240 2
   189  241  242 ar
   190  242  243 ar
   191  196  223 1
   192  257  278 1
   193  257  279 1
   194  257  259 1
   195  258  259 1
   196  258  260 1
   197  260  262 1
   198  260  261 1
   199  261  266 1
   200  262  264 1
   201  262  263 1
   202  264  266 1
   203  264  265 1
   204  266  277 1
   205  267  268 1
   206  267  273 am
   207  268  269 2
   208  268  270 2
   209  270  271 1
   210  271  277 ar
   211  271  272 ar
   212  272  275 ar
   213  272  273 1
   214  273  274 2
   215  275  276 ar
   216  276  277 ar
   217  229  257 1
   218  291  312 1
   219  291  311 1
   220  291  293 1
   221  292  294 1
   222  292  293 1
   223  294  295 1
   224  294  296 1
   225  295  300 1
   226  296  298 1
   227  296  297 1
   228  298  300 1
   229  298  299 1
   230  300  310 1
   231  301  306 ar
   232  301  302 ar
   233  302  303 ar
   234  303  304 ar
   235  304  305 ar
   236  304  310 ar
   237  305  306 ar
   238  305  308 ar
   239  306  307 1
   240  308  309 ar
   241  309  310 ar
   242  263  291 1
   243  324  345 1
   244  324  344 1
   245  324  326 1
   246  325  327 1
   247  325  326 1
   248  327  328 1
   249  327  329 1
   250  328  333 1
   251  329  331 1
   252  329  330 1
   253  331  333 1
   254  331  332 1
   255  333  343 1
   256  334  339 ar
   257  334  335 ar
   258  335  336 ar
   259  336  337 ar
   260  337  338 ar
   261  337  343 ar
   262  338  339 ar
   263  338  341 ar
   264  339  340 1
   265  341  342 ar
   266  342  343 ar
   267  297  324 1
   268  357  378 1
   269  357  379 1
   270  357  359 1
   271  358  359 1
   272  358  360 1
   273  360  362 1
   274  360  361 1
   275  361  366 1
   276  362  364 1
   277  362  363 1
   278  364  366 1
   279  364  365 1
   280  366  377 1
   281  367  368 1
   282  367  373 am
   283  368  369 2
   284  368  370 2
   285  370  371 1
   286  371  377 ar
   287  371  372 ar
   288  372  375 ar
   289  372  373 1
   290  373  374 2
   291  375  376 ar
   292  376  377 ar
   293  330  357 1
   294  391  412 1
   295  391  413 1
   296  391  393 1
   297  392  393 1
   298  392  394 1
   299  394  396 1
   300  394  395 1
   301  395  400 1
   302  396  398 1
   303  396  397 1
   304  398  400 1
   305  398  399 1
   306  400  411 1
   307  401  402 1
   308  401  407 am
   309  402  403 2
   310  402  404 2
   311  404  405 1
   312  405  411 ar
   313  405  406 ar
   314  406  409 ar
   315  406  407 1
   316  407  408 2
   317  409  410 ar
   318  410  411 ar
   319  363  391 1
   320  425  444 1
   321  425  443 1
   322  425  427 1
   323  426  428 1
   324  426  427 1
   325  428  430 1
   326  428  429 1
   327  429  434 1
   328  430  431 1
   329  430  432 1
   330  432  433 1
   331  432  434 1
   332  434  435 1
   333  435  442 1
   334  435  436 am
   335  436  438 am
   336  436  437 2
   337  438  439 am
   338  439  440 2
   339  439  441 1
   340  441  442 2
   341  397  425 1
   342  455  474 1
   343  455  473 1
   344  455  457 1
   345  456  458 1
   346  456  457 1
   347  458  460 1
   348  458  459 1
   349  459  464 1
   350  460  461 1
   351  460  462 1
   352  462  463 1
   353  462  464 1
   354  464  465 1
   355  465  472 1
   356  465  466 am
   357  466  468 am
   358  466  467 2
   359  468  469 am
   360  469  470 2
   361  469  471 1
   362  471  472 2
   363  431  455 1
   364  485  504 1
   365  485  503 1
   366  485  487 1
   367  486  488 1
   368  486  487 1
   369  488  490 1
   370  488  489 1
   371  489  494 1
   372  490  491 1
   373  490  492 1
   374  492  493 1
   375  492  494 1
   376  494  495 1
   377  495  502 1
   378  495  496 am
   379  496  498 am
   380  496  497 2
   381  498  499 am
   382  499  500 2
   383  499  501 1
   384  501  502 2
   385  461  485 1
   386  515  536 1
   387  515  537 1
   388  515  517 1
   389  516  517 1
   390  516  518 1
   391  518  520 1
   392  518  519 1
   393  519  524 1
   394  520  522 1
   395  520  521 1
   396  522  524 1
   397  522  523 1
   398  524  535 1
   399  525  526 1
   400  525  531 am
   401  526  527 2
   402  526  528 2
   403  528  529 1
   404  529  535 ar
   405  529  530 ar
   406  530  533 ar
   407  530  531 1
   408  531  532 2
   409  533  534 ar
   410  534  535 ar
   411  491  515 1
   412  549  570 1
   413  549  571 1
   414  549  551 1
   415  550  551 1
   416  550  552 1
   417  552  554 1
   418  552  553 1
   419  553  558 1
   420  554  556 1
   421  554  555 1
   422  556  558 1
   423  556  557 1
   424  558  569 1
   425  559  560 1
   426  559  565 am
   427  560  561 2
   428  560  562 2
   429  562  563 1
   430  563  569 ar
   431  563  564 ar
   432  564  567 ar
   433  564  565 1
   434  565  566 2
   435  567  568 ar
   436  568  569 ar
   437  521  549 1
   438  583  602 1
   439  583  601 1
   440  583  585 1
   441  584  586 1
   442  584  585 1
   443  586  588 1
   444  586  587 1
   445  587  592 1
   446  588  589 1
   447  588  590 1
   448  590  591 1
   449  590  592 1
   450  592  593 1
   451  593  600 1
   452  593  594 am
   453  594  596 am
   454  594  595 2
   455  596  597 am
   456  597  598 2
   457  597  599 1
   458  599  600 2
   459  555  583 1
   460  613  634 1
   461  613  633 1
   462  613  615 1
   463  614  616 1
   464  614  615 1
   465  616  617 1
   466  616  618 1
   467  617  622 1
   468  618  620 1
   469  618  619 1
   470  620  622 1
   471  620  621 1
   472  622  632 1
   473  623  628 ar
   474  623  624 ar
   475  624  625 ar
   476  625  626 ar
   477  626  627 ar
   478  626  632 ar
   479  627  628 ar
   480  627  630 ar
   481  628  629 1
   482  630  631 ar
   483  631  632 ar
   484  589  613 1
   485  646  665 1
   486  646  664 1
   487  646  648 1
   488  647  649 1
   489  647  648 1
   490  649  651 1
   491  649  650 1
   492  650  655 1
   493  651  652 1
   494  651  653 1
   495  653  654 1
   496  653  655 1
   497  655  656 1
   498  656  663 1
   499  656  657 am
   500  657  659 am
   501  657  658 2
   502  659  660 am
   503  660  661 2
   504  660  662 1
   505  662  663 2
   506  619  646 1
   507  676  697 1
   508  676  698 1
   509  676  678 1
   510  677  678 1
   511  677  679 1
   512  679  681 1
   513  679  680 1
   514  680  685 1
   515  681  683 1
   516  681  682 1
   517  683  685 1
   518  683  684 1
   519  685  696 1
   520  686  687 1
   521  686  692 am
   522  687  688 2
   523  687  689 2
   524  689  690 1
   525  690  696 ar
   526  690  691 ar
   527  691  694 ar
   528  691  692 1
   529  692  693 2
   530  694  695 ar
   531  695  696 ar
   532  652  676 1
   533  710  731 1
   534  710  732 1
   535  710  712 1
   536  711  712 1
   537  711  713 1
   538  713  715 1
   539  713  714 1
   540  714  719 1
   541  715  717 1
   542  715  716 1
   543  717  719 1
   544  717  718 1
   545  719  730 1
   546  720  721 1
   547  720  726 am
   548  721  722 2
   549  721  723 2
   550  723  724 1
   551  724  730 ar
   552  724  725 ar
   553  725  728 ar
   554  725  726 1
   555  726  727 2
   556  728  729 ar
   557  729  730 ar
   558  682  710 1
   559  744  765 1
   560  744  766 1
   561  744  746 1
   562  745  746 1
   563  745  747 1
   564  747  749 1
   565  747  748 1
   566  748  753 1
   567  749  751 1
   568  749  750 1
   569  751  753 1
   570  751  752 1
   571  753  764 1
   572  754  755 1
   573  754  760 am
   574  755  756 2
   575  755  757 2
   576  757  758 1
   577  758  764 ar
   578  758  759 ar
   579  759  762 ar
   580  759  760 1
   581  760  761 2
   582  762  763 ar
   583  763  764 ar
   584  716  744 1
   585  778  799 1
   586  778  800 1
   587  778  780 1
   588  779  780 1
   589  779  781 1
   590  781  783 1
   591  781  782 1
   592  782  787 1
   593  783  785 1
   594  783  784 1
   595  785  787 1
   596  785  786 1
   597  787  798 1
   598  788  789 1
   599  788  794 am
   600  789  790 2
   601  789  791 2
   602  791  792 1
   603  792  798 ar
   604  792  793 ar
   605  793  796 ar
   606  793  794 1
   607  794  795 2
   608  796  797 ar
   609  797  798 ar
   610  750  778 1
   611  812  823 1
   612  812  822 1
   613  812  814 1
   614  813  815 1
   615  813  814 1
   616  815  817 1
   617  815  816 1
   618  816  821 1
   619  817  818 1
   620  817  819 1
   621  819  820 1
   622  819  821 1
   623  784  812 1
   624  832  853 1
   625  832  852 1
   626  832  834 1
   627  833  835 1
   628  833  834 1
   629  835  836 1
   630  835  837 1
   631  836  841 1
   632  837  839 1
   633  837  838 1
   634  839  841 1
   635  839  840 1
   636  841  851 1
   637  842  847 ar
   638  842  843 ar
   639  843  844 ar
   640  844  845 ar
   641  845  846 ar
   642  845  851 ar
   643  846  847 ar
   644  846  849 ar
   645  847  848 1
   646  849  850 ar
   647  850  851 ar
   648  818  832 1
   649  865  886 1
   650  865  887 1
   651  865  867 1
   652  866  867 1
   653  866  868 1
   654  868  870 1
   655  868  869 1
   656  869  874 1
   657  870  872 1
   658  870  871 1
   659  872  874 1
   660  872  873 1
   661  874  885 1
   662  875  876 1
   663  875  881 am
   664  876  877 2
   665  876  878 2
   666  878  879 1
   667  879  885 ar
   668  879  880 ar
   669  880  883 ar
   670  880  881 1
   671  881  882 2
   672  883  884 ar
   673  884  885 ar
   674  838  865 1
   675  899  918 1
   676  899  917 1
   677  899  901 1
   678  900  902 1
   679  900  901 1
   680  902  904 1
   681  902  903 1
   682  903  908 1
   683  904  905 1
   684  904  906 1
   685  906  907 1
   686  906  908 1
   687  908  909 1
   688  909  916 1
   689  909  910 am
   690  910  912 am
   691  910  911 2
   692  912  913 am
   693  913  914 2
   694  913  915 1
   695  915  916 2
   696  871  899 1
   697  929  948 1
   698  929  947 1
   699  929  931 1
   700  930  932 1
   701  930  931 1
   702  932  934 1
   703  932  933 1
   704  933  938 1
   705  934  935 1
   706  934  936 1
   707  936  937 1
   708  936  938 1
   709  938  939 1
   710  939  946 1
   711  939  940 am
   712  940  942 am
   713  940  941 2
   714  942  943 am
   715  943  944 2
   716  943  945 1
   717  945  946 2
   718  905  929 1
   719  959  980 1
   720  959  981 1
   721  959  961 1
   722  960  961 1
   723  960  962 1
   724  962  964 1
   725  962  963 1
   726  963  968 1
   727  964  966 1
   728  964  965 1
   729  966  968 1
   730  966  967 1
   731  968  979 1
   732  969  970 1
   733  969  975 am
   734  970  971 2
   735  970  972 2
   736  972  973 1
   737  973  979 ar
   738  973  974 ar
   739  974  977 ar
   740  974  975 1
   741  975  976 2
   742  977  978 ar
   743  978  979 ar
   744  935  959 1
   745  993 1012 1
   746  993 1011 1
   747  993  995 1
   748  994  996 1
   749  994  995 1
   750  996  998 1
   751  996  997 1
   752  997 1002 1
   753  998  999 1
   754  998 1000 1
   755 1000 1001 1
   756 1000 1002 1
   757 1002 1003 1
   758 1003 1010 1
   759 1003 1004 am
   760 1004 1006 am
   761 1004 1005 2
   762 1006 1007 am
   763 1007 1008 2
   764 1007 1009 1
   765 1009 1010 2
   766  965  993 1
   767 1023 1025 1
   768 1023 1042 1
   769 1023 1041 1
   770 1024 1025 1
   771 1024 1026 1
   772 1026 1028 1
   773 1026 1027 1
   774 1027 1032 1
   775 1028 1030 1
   776 1028 1029 1
   777 1030 1031 1
   778 1030 1032 1
   779 1032 1033 1
   780 1033 1034 am
   781 1033 1040 1
   782 1034 1035 2
   783 1034 1036 1
   784 1036 1037 2
   785 1037 1039 2
   786 1037 1038 2
   787 1039 1040 2
   788  999 1023 1
   789 1054 1075 1
   790 1054 1076 1
   791 1054 1056 1
   792 1055 1056 1
   793 1055 1057 1
   794 1057 1059 1
   795 1057 1058 1
   796 1058 1063 1
   797 1059 1061 1
   798 1059 1060 1
   799 1061 1063 1
   800 1061 1062 1
   801 1063 1074 1
   802 1064 1065 1
   803 1064 1070 am
   804 1065 1066 2
   805 1065 1067 2
   806 1067 1068 1
   807 1068 1074 ar
   808 1068 1069 ar
   809 1069 1072 ar
   810 1069 1070 1
   811 1070 1071 2
   812 1072 1073 ar
   813 1073 1074 ar
   814 1029 1054 1
   815 1088 1107 1
   816 1088 1106 1
   817 1088 1090 1
   818 1089 1091 1
   819 1089 1090 1
   820 1091 1093 1
   821 1091 1092 1
   822 1092 1097 1
   823 1093 1094 1
   824 1093 1095 1
   825 1095 1096 1
   826 1095 1097 1
   827 1097 1098 1
   828 1098 1105 1
   829 1098 1099 am
   830 1099 1101 am
   831 1099 1100 2
   832 1101 1102 am
   833 1102 1103 2
   834 1102 1104 1
   835 1104 1105 2
   836 1060 1088 1
   837 1118 1139 1
   838 1118 1138 1
   839 1118 1120 1
   840 1119 1121 1
   841 1119 1120 1
   842 1121 1122 1
   843 1121 1123 1
   844 1122 1127 1
   845 1123 1125 1
   846 1123 1124 1
   847 1125 1127 1
   848 1125 1126 1
   849 1127 1137 1
   850 1128 1133 ar
   851 1128 1129 ar
   852 1129 1130 ar
   853 1130 1131 ar
   854 1131 1132 ar
   855 1131 1137 ar
   856 1132 1133 ar
   857 1132 1135 ar
   858 1133 1134 1
   859 1135 1136 ar
   860 1136 1137 ar
   861 1094 1118 1
   862 1152 1153 1
   863 1152 1154 1
   864 1154 1156 1
   865 1154 1155 1
   866 1155 1160 1
   867 1156 1158 1
   868 1156 1157 1
   869 1158 1159 1
   870 1158 1160 1
   871 1160 1161 1
   872 1161 1168 1
   873 1161 1162 am
   874 1162 1163 2
   875 1162 1164 1
   876 1164 1165 2
   877 1165 1167 2
   878 1165 1166 2
   879 1167 1168 2
   880 1151 1153 1
   881 1151 1169 1
   882 1151 1170 1
   883 1124 1151 1
   884   19    1 1
   885   20    1 1
   886   21    3 1
   887   22    5 1
   888   23    7 1
   889   24    8 1
   890   25   17 1
   891   49   30 1
   892   50   30 1
   893   51   32 1
   894   52   34 1
   895   53   36 1
   896   54   38 1
   897   55   42 1
   898   56   45 1
   899   57   46 1
   900   81   60 1
   901   82   60 1
   902   83   62 1
   903   84   64 1
   904   85   66 1
   905   86   68 1
   906   87   70 1
   907   88   77 1
   908  112   93 1
   909  113   93 1
   910  114   95 1
   911  115   97 1
   912  116   99 1
   913  117  101 1
   914  118  108 1
   915  119  109 1
   916  146  124 1
   917  147  124 1
   918  148  126 1
   919  149  128 1
   920  150  130 1
   921  151  132 1
   922  152  133 1
   923  153  142 1
   924  179  158 1
   925  180  158 1
   926  181  160 1
   927  182  162 1
   928  183  164 1
   929  184  166 1
   930  185  168 1
   931  186  175 1
   932  212  191 1
   933  213  191 1
   934  214  193 1
   935  215  195 1
   936  216  197 1
   937  217  199 1
   938  218  201 1
   939  219  208 1
   940  246  224 1
   941  247  224 1
   942  248  226 1
   943  249  228 1
   944  250  230 1
   945  251  232 1
   946  252  233 1
   947  253  242 1
   948  280  258 1
   949  281  258 1
   950  282  260 1
   951  283  262 1
   952  284  264 1
   953  285  266 1
   954  286  267 1
   955  287  276 1
   956  313  292 1
   957  314  292 1
   958  315  294 1
   959  316  296 1
   960  317  298 1
   961  318  300 1
   962  319  302 1
   963  320  309 1
   964  346  325 1
   965  347  325 1
   966  348  327 1
   967  349  329 1
   968  350  331 1
   969  351  333 1
   970  352  335 1
   971  353  342 1
   972  380  358 1
   973  381  358 1
   974  382  360 1
   975  383  362 1
   976  384  364 1
   977  385  366 1
   978  386  367 1
   979  387  376 1
   980  414  392 1
   981  415  392 1
   982  416  394 1
   983  417  396 1
   984  418  398 1
   985  419  400 1
   986  420  401 1
   987  421  410 1
   988  445  426 1
   989  446  426 1
   990  447  428 1
   991  448  430 1
   992  449  432 1
   993  450  434 1
   994  451  438 1
   995  452  441 1
   996  453  442 1
   997  475  456 1
   998  476  456 1
   999  477  458 1
  1000  478  460 1
  1001  479  462 1
  1002  480  464 1
  1003  481  468 1
  1004  482  471 1
  1005  483  472 1
  1006  505  486 1
  1007  506  486 1
  1008  507  488 1
  1009  508  490 1
  1010  509  492 1
  1011  510  494 1
  1012  511  498 1
  1013  512  501 1
  1014  513  502 1
  1015  538  516 1
  1016  539  516 1
  1017  540  518 1
  1018  541  520 1
  1019  542  522 1
  1020  543  524 1
  1021  544  525 1
  1022  545  534 1
  1023  572  550 1
  1024  573  550 1
  1025  574  552 1
  1026  575  554 1
  1027  576  556 1
  1028  577  558 1
  1029  578  559 1
  1030  579  568 1
  1031  603  584 1
  1032  604  584 1
  1033  605  586 1
  1034  606  588 1
  1035  607  590 1
  1036  608  592 1
  1037  609  596 1
  1038  610  599 1
  1039  611  600 1
  1040  635  614 1
  1041  636  614 1
  1042  637  616 1
  1043  638  618 1
  1044  639  620 1
  1045  640  622 1
  1046  641  624 1
  1047  642  631 1
  1048  666  647 1
  1049  667  647 1
  1050  668  649 1
  1051  669  651 1
  1052  670  653 1
  1053  671  655 1
  1054  672  659 1
  1055  673  662 1
  1056  674  663 1
  1057  699  677 1
  1058  700  677 1
  1059  701  679 1
  1060  702  681 1
  1061  703  683 1
  1062  704  685 1
  1063  705  686 1
  1064  706  695 1
  1065  733  711 1
  1066  734  711 1
  1067  735  713 1
  1068  736  715 1
  1069  737  717 1
  1070  738  719 1
  1071  739  720 1
  1072  740  729 1
  1073  767  745 1
  1074  768  745 1
  1075  769  747 1
  1076  770  749 1
  1077  771  751 1
  1078  772  753 1
  1079  773  754 1
  1080  774  763 1
  1081  801  779 1
  1082  802  779 1
  1083  803  781 1
  1084  804  783 1
  1085  805  785 1
  1086  806  787 1
  1087  807  788 1
  1088  808  797 1
  1089  824  813 1
  1090  825  813 1
  1091  826  815 1
  1092  827  817 1
  1093  828  819 1
  1094  829  821 1
  1095  830  821 1
  1096  854  833 1
  1097  855  833 1
  1098  856  835 1
  1099  857  837 1
  1100  858  839 1
  1101  859  841 1
  1102  860  843 1
  1103  861  850 1
  1104  888  866 1
  1105  889  866 1
  1106  890  868 1
  1107  891  870 1
  1108  892  872 1
  1109  893  874 1
  1110  894  875 1
  1111  895  884 1
  1112  919  900 1
  1113  920  900 1
  1114  921  902 1
  1115  922  904 1
  1116  923  906 1
  1117  924  908 1
  1118  925  912 1
  1119  926  915 1
  1120  927  916 1
  1121  949  930 1
  1122  950  930 1
  1123  951  932 1
  1124  952  934 1
  1125  953  936 1
  1126  954  938 1
  1127  955  942 1
  1128  956  945 1
  1129  957  946 1
  1130  982  960 1
  1131  983  960 1
  1132  984  962 1
  1133  985  964 1
  1134  986  966 1
  1135  987  968 1
  1136  988  969 1
  1137  989  978 1
  1138 1013  994 1
  1139 1014  994 1
  1140 1015  996 1
  1141 1016  998 1
  1142 1017 1000 1
  1143 1018 1002 1
  1144 1019 1006 1
  1145 1020 1009 1
  1146 1021 1010 1
  1147 1043 1024 1
  1148 1044 1024 1
  1149 1045 1026 1
  1150 1046 1028 1
  1151 1047 1030 1
  1152 1048 1032 1
  1153 1049 1039 1
  1154 1050 1040 1
  1155 1077 1055 1
  1156 1078 1055 1
  1157 1079 1057 1
  1158 1080 1059 1
  1159 1081 1061 1
  1160 1082 1063 1
  1161 1083 1064 1
  1162 1084 1073 1
  1163 1108 1089 1
  1164 1109 1089 1
  1165 1110 1091 1
  1166 1111 1093 1
  1167 1112 1095 1
  1168 1113 1097 1
  1169 1114 1101 1
  1170 1115 1104 1
  1171 1116 1105 1
  1172 1140 1119 1
  1173 1141 1119 1
  1174 1142 1121 1
  1175 1143 1123 1
  1176 1144 1125 1
  1177 1145 1127 1
  1178 1146 1129 1
  1179 1147 1136 1
  1180 1171 1152 1
  1181 1172 1152 1
  1182 1173 1154 1
  1183 1174 1156 1
  1184 1175 1158 1
  1185 1176 1160 1
  1186 1177 1167 1
  1187 1178 1168 1
  1188   26   10 1
  1189   27   10 1
  1190  120  107 1
  1191  121  107 1
  1192  154  135 1
  1193  155  135 1
  1194  254  235 1
  1195  255  235 1
  1196  288  269 1
  1197  289  269 1
  1198  388  369 1
  1199  389  369 1
  1200  422  403 1
  1201  423  403 1
  1202  546  527 1
  1203  547  527 1
  1204  580  561 1
  1205  581  561 1
  1206  707  688 1
  1207  708  688 1
  1208  741  722 1
  1209  742  722 1
  1210  775  756 1
  1211  776  756 1
  1212  809  790 1
  1213  810  790 1
  1214  896  877 1
  1215  897  877 1
  1216  990  971 1
  1217  991  971 1
  1218 1051 1038 1
  1219 1052 1038 1
  1220 1085 1066 1
  1221 1086 1066 1
  1222 1179 1166 1
  1223 1180 1166 1
  1224  709  684 1
  1225  643  621 1
  1226  514  493 1
  1227  582  557 1
  1228  928  907 1
  1229  548  523 1
  1230  743  718 1
  1231  424  399 1
  1232  187  165 1
  1233  484  463 1
  1234  354  332 1
  1235  390  365 1
  1236 1148 1126 1
  1237   89   67 1
  1238  644  629 1
  1239  645  629 1
  1240  862  848 1
  1241  863  848 1
  1242  355  340 1
  1243  356  340 1
  1244 1149 1134 1
  1245 1150 1134 1
  1246  220  206 1
  1247  221  206 1
  1248   90   75 1
  1249   91   75 1
  1250  321  307 1
  1251  322  307 1
  1252  188  173 1
  1253  189  173 1
  1254  122  100 1
  1255  256  231 1
  1256  898  873 1
  1257  156  131 1
  1258  454  433 1
  1259 1117 1096 1
  1260  290  265 1
  1261 1087 1062 1
  1262  612  591 1
  1263  777  752 1
  1264 1022 1001 1
  1265  323  299 1
  1266  958  937 1
  1267   28    6 1
  1268  811  786 1
  1269   58   37 1
  1270  992  967 1
  1271  675  654 1
  1272  831  820 1
  1273  222  198 1
  1274 1053 1031 1
  1275 1181 1157 1
  1276  864  840 1
  1277 1182 1159 1
@<TRIPOS>SUBSTRUCTURE
     1   G1        1 RESIDUE           4 B       G     1 ROOT
     2   U2       32 RESIDUE           4 B       U     2
     3   A3       62 RESIDUE           4 B       A     2
     4   C4       95 RESIDUE           4 B       C     2
     5   G5      126 RESIDUE           4 B       G     2
     6   A6      160 RESIDUE           4 B       A     2
     7   A7      193 RESIDUE           4 B       A     2
     8   G8      226 RESIDUE           4 B       G     2
     9   G9      260 RESIDUE           4 B       G     2
    10   A10     294 RESIDUE           4 B       A     2
    11   A11     327 RESIDUE           4 B       A     2
    12   G12     360 RESIDUE           4 B       G     2
    13   G13     394 RESIDUE           4 B       G     2
    14   U14     428 RESIDUE           4 B       U     2
    15   U15     458 RESIDUE           4 B       U     2
    16   U16     488 RESIDUE           4 B       U     2
    17   G17     518 RESIDUE           4 B       G     2
    18   G18     552 RESIDUE           4 B       G     2
    19   U19     586 RESIDUE           4 B       U     2
    20   A20     616 RESIDUE           4 B       A     2
    21   U21     649 RESIDUE           4 B       U     2
    22   G22     679 RESIDUE           4 B       G     2
    23   G23     713 RESIDUE           4 B       G     2
    24   G24     747 RESIDUE           4 B       G     2
    25   G25     781 RESIDUE           4 B       G     2
    26   U26     815 RESIDUE           4 B       U     2
    27   A27     835 RESIDUE           4 B       A     2
    28   G28     868 RESIDUE           4 B       G     2
    29   U29     902 RESIDUE           4 B       U     2
    30   U30     932 RESIDUE           4 B       U     2
    31   G31     962 RESIDUE           4 B       G     2
    32   U32     996 RESIDUE           4 B       U     2
    33   C33    1026 RESIDUE           4 B       C     2
    34   G34    1057 RESIDUE           4 B       G     2
    35   U35    1091 RESIDUE           4 B       U     2
    36   A36    1121 RESIDUE           4 B       A     2
    37   C37    1154 RESIDUE           4 B       C     1
    38  MG101   1183 RESIDUE           4 B      MG     0 ROOT
    39  MG102   1184 RESIDUE           4 B      MG     0 ROOT
    40  MG103   1185 RESIDUE           4 B      MG     0 ROOT
    41  MG104   1186 RESIDUE           4 B      MG     0 ROOT
    42  MG105   1187 RESIDUE           4 B      MG     0 ROOT
    43  NA107   1188 RESIDUE           4 B      NA     0 ROOT
    44  NA108   1189 RESIDUE           4 B      NA     0 ROOT
    45   K109   1190 RESIDUE           4 B       K     0 ROOT
