23_solution_0
  PyMOL2.5          3D                             0

 52 57  0  0  0  0  0  0  0  0999 V2000
   13.4110  -15.6910  -28.3750 C   0  0  0  0  0  0  0  0  0  0  0  0
   12.6440  -14.4250  -28.2090 N   0  0  0  0  0  0  0  0  0  0  0  0
   11.4690  -14.4000  -27.3530 C   0  0  0  0  0  0  0  0  0  0  0  0
   10.7060  -13.1390  -27.2020 C   0  0  0  0  0  0  0  0  0  0  0  0
   11.1430  -11.9160  -27.8870 C   0  0  0  0  0  0  0  0  0  0  0  0
   10.4890  -10.7310  -27.8220 C   0  0  0  0  0  0  0  0  0  0  0  0
    9.2610  -10.4770  -26.9220 C   0  0  0  0  0  0  0  0  0  0  0  0
    8.7990   -9.1820  -26.6980 N   0  0  0  0  0  0  0  0  0  0  0  0
    9.3260   -7.9660  -27.3600 C   0  0  0  0  0  0  0  0  0  0  0  0
   10.0770   -6.9450  -26.5220 C   0  0  0  0  0  0  0  0  0  0  0  0
   10.0680   -5.7950  -26.8410 O   0  0  0  0  0  0  0  0  0  0  0  0
   10.7640   -7.4540  -25.3560 N   0  0  0  0  0  0  0  0  0  0  0  0
   11.5420   -6.5690  -24.4760 C   0  0  0  0  0  0  0  0  0  0  0  0
   10.7530   -6.3910  -23.1660 C   0  0  0  0  0  0  0  0  0  0  0  0
    9.5410   -5.7270  -23.4920 O   0  0  0  0  0  0  0  0  0  0  0  0
    8.5270   -5.9510  -22.5000 C   0  0  0  0  0  0  0  0  0  0  0  0
    7.9210   -4.6060  -22.0690 C   0  0  0  0  0  0  0  0  0  0  0  0
    8.8330   -3.5560  -22.3020 O   0  0  0  0  0  0  0  0  0  0  0  0
    9.1670   -2.8520  -21.1380 C   0  0  0  0  0  0  0  0  0  0  0  0
    9.9220   -1.6170  -21.5800 C   0  0  0  0  0  0  0  0  0  0  0  0
    8.9450   -0.6700  -21.9280 O   0  0  0  0  0  0  0  0  0  0  0  0
    9.5010    0.6000  -22.1000 C   0  0  0  0  0  0  0  0  0  0  0  0
    8.3970    1.4940  -22.6510 C   0  0  0  0  0  0  0  0  0  0  0  0
    7.3410    1.5690  -21.6420 N   0  0  0  0  0  0  0  0  0  0  0  0
    6.9670    2.8400  -21.0080 C   0  0  0  0  0  0  0  0  0  0  0  0
    7.5150    3.8620  -21.2850 O   0  0  0  0  0  0  0  0  0  0  0  0
    5.8240    2.8080  -19.9560 C   0  0  0  0  0  0  0  0  0  0  0  0
    4.9110    4.0700  -19.9820 C   0  0  0  0  0  0  0  0  0  0  0  0
    3.8140    3.8520  -18.9020 C   0  0  0  0  0  0  0  0  0  0  0  0
    2.6430    4.8910  -18.8890 C   0  0  0  0  0  0  0  0  0  0  0  0
    2.5840    5.8840  -17.6030 C   0  0  0  0  0  0  0  0  0  0  0  0
    0.9930    6.5000  -17.4930 S   0  0  0  0  0  0  0  0  0  0  0  0
    0.8920    7.0350  -16.1100 C   0  0  0  0  0  0  0  0  0  0  0  0
    1.8800    6.0880  -15.2000 C   0  0  0  0  0  0  0  0  0  0  0  0
    1.1690    5.2240  -14.5660 N   0  0  0  0  0  0  0  0  0  0  0  0
    1.5310    3.7740  -15.1360 C   0  0  0  0  0  0  0  0  0  0  0  0
    1.0620    2.7410  -14.7900 O   0  0  0  0  0  0  0  0  0  0  0  0
    2.5770    3.9580  -16.1970 N   0  0  0  0  0  0  0  0  0  0  0  0
    2.8640    5.2800  -16.3020 C   0  0  0  0  0  0  0  0  0  0  0  0
    7.6720   -9.2290  -25.8210 C   0  0  0  0  0  0  0  0  0  0  0  0
    7.2970  -10.4890  -25.3730 C   0  0  0  0  0  0  0  0  0  0  0  0
    8.3030  -11.6160  -26.1150 S   0  0  0  0  0  0  0  0  0  0  0  0
    6.2040  -10.6200  -24.5000 C   0  0  0  0  0  0  0  0  0  0  0  0
    5.5320   -9.4700  -24.0670 C   0  0  0  0  0  0  0  0  0  0  0  0
    5.9220   -8.2040  -24.5310 C   0  0  0  0  0  0  0  0  0  0  0  0
    6.9980   -8.0510  -25.4040 C   0  0  0  0  0  0  0  0  0  0  0  0
   12.3810  -11.9730  -28.7640 C   0  0  0  0  0  0  0  0  0  0  0  0
   13.1020  -13.1900  -28.9230 C   0  0  0  0  0  0  0  0  0  0  0  0
   14.2380  -13.2330  -29.7420 C   0  0  0  0  0  0  0  0  0  0  0  0
   14.7060  -12.0870  -30.4170 C   0  0  0  0  0  0  0  0  0  0  0  0
   13.9780  -10.8660  -30.2590 C   0  0  0  0  0  0  0  0  0  0  0  0
   12.8250  -10.8260  -29.4400 C   0  0  0  0  0  0  0  0  0  0  0  0
  1  2  1  0  0  0  0
  2  3  4  0  0  0  0
  3  4  4  0  0  0  0
  4  5  4  0  0  0  0
  5  6  1  0  0  0  0
  5 47  4  0  0  0  0
  6  7  1  0  0  0  0
  7  8  4  0  0  0  0
  7 42  4  0  0  0  0
  8  9  1  0  0  0  0
  9 10  1  0  0  0  0
 10 11  2  0  0  0  0
 10 12  1  0  0  0  0
 12 13  1  0  0  0  0
 13 14  1  0  0  0  0
 14 15  1  0  0  0  0
 15 16  1  0  0  0  0
 16 17  1  0  0  0  0
 17 18  1  0  0  0  0
 18 19  1  0  0  0  0
 19 20  1  0  0  0  0
 20 21  1  0  0  0  0
 21 22  1  0  0  0  0
 22 23  1  0  0  0  0
 23 24  1  0  0  0  0
 24 25  1  0  0  0  0
 25 26  2  0  0  0  0
 25 27  1  0  0  0  0
 27 28  1  0  0  0  0
 28 29  1  0  0  0  0
 29 30  1  0  0  0  0
 30 31  1  0  0  0  0
 31 32  1  0  0  0  0
 31 39  1  0  0  0  0
 32 33  1  0  0  0  0
 33 34  1  0  0  0  0
 34 35  1  0  0  0  0
 34 39  1  0  0  0  0
 35 36  1  0  0  0  0
 36 37  2  0  0  0  0
 36 38  1  0  0  0  0
 38 39  1  0  0  0  0
  8 40  4  0  0  0  0
 40 41  4  0  0  0  0
 40 46  4  0  0  0  0
 41 42  4  0  0  0  0
 41 43  4  0  0  0  0
 43 44  4  0  0  0  0
 44 45  4  0  0  0  0
 45 46  4  0  0  0  0
 47 48  4  0  0  0  0
 47 52  4  0  0  0  0
  2 48  4  0  0  0  0
 48 49  4  0  0  0  0
 49 50  4  0  0  0  0
 50 51  4  0  0  0  0
 51 52  4  0  0  0  0
M  END
$$$$
