Das_07
  PyMOL2.5          3D                             0

 54 57  0  0  0  0  0  0  0  0999 V2000
   12.6295   -7.1055  -29.7254 C   0  0  0  0  0  0  0  0  0  0  0  0
   11.3367   -7.0647  -29.1404 O   0  0  0  0  0  0  0  0  0  0  0  0
   11.2864   -7.1376  -27.7449 C   0  0  0  0  0  0  0  0  0  0  0  0
    9.9754   -6.4757  -27.2522 C   0  0  0  0  0  0  0  0  0  0  0  0
    8.9034   -7.4063  -26.8157 N   0  0  0  0  0  0  0  0  0  0  0  0
    8.6141   -7.8500  -25.4108 C   0  0  0  0  0  0  0  0  0  0  0  0
    9.3727   -7.7529  -24.4926 O   0  0  0  0  0  0  0  0  0  0  0  0
    7.1776   -8.4289  -25.2980 C   0  0  0  0  0  0  0  0  0  0  0  0
    6.7255   -9.8609  -25.1813 N   0  0  0  0  0  0  0  0  0  0  0  0
    7.3173  -11.0817  -25.3412 C   0  0  0  0  0  0  0  0  0  0  0  0
    8.7621  -11.5280  -25.7494 C   0  0  0  0  0  0  0  0  0  0  0  0
    9.3355  -12.7901  -25.4662 C   0  0  0  0  0  0  0  0  0  0  0  0
    8.6756  -13.8980  -24.8514 C   0  0  0  0  0  0  0  0  0  0  0  0
    9.2883  -15.1360  -24.5945 C   0  0  0  0  0  0  0  0  0  0  0  0
   10.5681  -15.3423  -24.9450 N   0  0  0  0  0  0  0  0  0  0  0  0
   11.1755  -16.6095  -24.6862 C   0  0  0  0  0  0  0  0  0  0  0  0
   11.2819  -14.3063  -25.5539 C   0  0  0  0  0  0  0  0  0  0  0  0
   12.6642  -14.5637  -25.9054 C   0  0  0  0  0  0  0  0  0  0  0  0
   13.4235  -13.5346  -26.5167 C   0  0  0  0  0  0  0  0  0  0  0  0
   12.8512  -12.2584  -26.7919 C   0  0  0  0  0  0  0  0  0  0  0  0
   11.4997  -11.9985  -26.4593 C   0  0  0  0  0  0  0  0  0  0  0  0
   10.7080  -13.0481  -25.8237 C   0  0  0  0  0  0  0  0  0  0  0  0
    6.0446  -12.2586  -25.0025 S   0  0  0  0  0  0  0  0  0  0  0  0
    4.8106  -11.1184  -24.6349 C   0  0  0  0  0  0  0  0  0  0  0  0
    3.4720  -11.2556  -24.2573 C   0  0  0  0  0  0  0  0  0  0  0  0
    2.7106  -10.1043  -24.0407 C   0  0  0  0  0  0  0  0  0  0  0  0
    3.3133   -8.8495  -24.1996 C   0  0  0  0  0  0  0  0  0  0  0  0
    4.6413   -8.7344  -24.5715 C   0  0  0  0  0  0  0  0  0  0  0  0
    5.4146   -9.8960  -24.8067 C   0  0  0  0  0  0  0  0  0  0  0  0
    9.4916  -10.8574  -25.2943 H   0  0  0  0  0  0  0  0  0  0  0  0
   13.1144   -7.8233  -29.3622 H   0  0  0  0  0  0  0  0  0  0  0  0
   13.0796   -6.3019  -29.5497 H   0  0  0  0  0  0  0  0  0  0  0  0
   12.5470   -7.2219  -30.6548 H   0  0  0  0  0  0  0  0  0  0  0  0
   11.3036   -8.0385  -27.4763 H   0  0  0  0  0  0  0  0  0  0  0  0
   12.0244   -6.6868  -27.3783 H   0  0  0  0  0  0  0  0  0  0  0  0
    9.6346   -5.9450  -27.9502 H   0  0  0  0  0  0  0  0  0  0  0  0
   10.1851   -5.9125  -26.5319 H   0  0  0  0  0  0  0  0  0  0  0  0
    8.4061   -7.7462  -27.4394 H   0  0  0  0  0  0  0  0  0  0  0  0
    6.7269   -8.0929  -26.0488 H   0  0  0  0  0  0  0  0  0  0  0  0
    6.8028   -7.9971  -24.5530 H   0  0  0  0  0  0  0  0  0  0  0  0
    9.2850  -10.9140  -26.2123 H   0  0  0  0  0  0  0  0  0  0  0  0
    7.7853  -13.7946  -24.6061 H   0  0  0  0  0  0  0  0  0  0  0  0
    8.8006  -15.8216  -24.1981 H   0  0  0  0  0  0  0  0  0  0  0  0
   11.8834  -16.4990  -24.0802 H   0  0  0  0  0  0  0  0  0  0  0  0
   11.5017  -16.9716  -25.4887 H   0  0  0  0  0  0  0  0  0  0  0  0
   10.5385  -17.1922  -24.3186 H   0  0  0  0  0  0  0  0  0  0  0  0
   13.0507  -15.3908  -25.7280 H   0  0  0  0  0  0  0  0  0  0  0  0
   14.3080  -13.6974  -26.7480 H   0  0  0  0  0  0  0  0  0  0  0  0
   13.3627  -11.5998  -27.2021 H   0  0  0  0  0  0  0  0  0  0  0  0
   11.1263  -11.1672  -26.6363 H   0  0  0  0  0  0  0  0  0  0  0  0
    3.0946  -12.0983  -24.1577 H   0  0  0  0  0  0  0  0  0  0  0  0
    1.8178  -10.1694  -23.7870 H   0  0  0  0  0  0  0  0  0  0  0  0
    2.8120   -8.0802  -24.0571 H   0  0  0  0  0  0  0  0  0  0  0  0
    5.0216   -7.8950  -24.6815 H   0  0  0  0  0  0  0  0  0  0  0  0
  1  2  1  0  0  0  0
  1 31  1  0  0  0  0
  1 32  1  0  0  0  0
  1 33  1  0  0  0  0
  2  3  1  0  0  0  0
  3  4  1  0  0  0  0
  3 34  1  0  0  0  0
  3 35  1  0  0  0  0
  4  5  1  0  0  0  0
  4 36  1  0  0  0  0
  4 37  1  0  0  0  0
  5  6  1  0  0  0  0
  5 38  1  0  0  0  0
  6  7  2  0  0  0  0
  6  8  1  0  0  0  0
  8  9  1  0  0  0  0
  8 39  1  0  0  0  0
  8 40  1  0  0  0  0
  9 10  4  0  0  0  0
  9 29  4  0  0  0  0
 10 11  1  0  0  0  0
 10 23  4  0  0  0  0
 11 12  1  0  0  0  0
 11 30  1  0  0  0  0
 11 41  1  0  0  0  0
 12 13  4  0  0  0  0
 12 22  4  0  0  0  0
 13 14  4  0  0  0  0
 13 42  1  0  0  0  0
 14 15  4  0  0  0  0
 14 43  1  0  0  0  0
 15 16  1  0  0  0  0
 15 17  4  0  0  0  0
 16 44  1  0  0  0  0
 16 45  1  0  0  0  0
 16 46  1  0  0  0  0
 17 18  4  0  0  0  0
 17 22  4  0  0  0  0
 18 19  4  0  0  0  0
 18 47  1  0  0  0  0
 19 20  4  0  0  0  0
 19 48  1  0  0  0  0
 20 21  4  0  0  0  0
 20 49  1  0  0  0  0
 21 22  4  0  0  0  0
 21 50  1  0  0  0  0
 23 24  4  0  0  0  0
 24 25  4  0  0  0  0
 24 29  4  0  0  0  0
 25 26  4  0  0  0  0
 25 51  1  0  0  0  0
 26 27  4  0  0  0  0
 26 52  1  0  0  0  0
 27 28  4  0  0  0  0
 27 53  1  0  0  0  0
 28 29  4  0  0  0  0
 28 54  1  0  0  0  0
M  END
$$$$
